<?xml version="1.0" encoding="UTF-8"?>

<!-- generated on mar 09 jul 2024 23:50:14 by Eclipse SUMO netedit Version 1.7.0
<configuration xmlns:xsi="http://www.w3.org/2001/XMLSchema-instance" xsi:noNamespaceSchemaLocation="http://sumo.dlr.de/xsd/netconvertConfiguration.xsd">

    <input>
        <sumo-net-file value="/home/mateo/Escritorio/omnetspace/veins-5.2/veins-veins-5.2/examples/veins/ModeladoAvHuaynacapac/huaynacapac.net.xml"/>
    </input>

    <output>
        <output-file value="/home/mateo/Escritorio/omnetspace/veins-5.2/veins-veins-5.2/examples/veins/ModeladoAvHuaynacapac/huaynacapac.net.xml"/>
    </output>

    <processing>
        <geometry.min-radius.fix.railways value="false"/>
        <geometry.max-grade.fix value="false"/>
        <offset.disable-normalization value="true"/>
        <lefthand value="false"/>
    </processing>

    <junctions>
        <no-turnarounds value="true"/>
        <junctions.corner-detail value="5"/>
        <junctions.limit-turn-speed value="5.5"/>
        <rectangular-lane-cut value="false"/>
    </junctions>

    <pedestrian>
        <walkingareas value="false"/>
    </pedestrian>

    <netedit>
        <additional-files value="/home/mateo/Escritorio/omnetspace/veins-5.2/veins-veins-5.2/examples/veins/ModeladoAvHuaynacapac/dects.add.xml"/>
        <route-files value="/home/mateo/Escritorio/omnetspace/veins-5.2/veins-veins-5.2/examples/veins/ModeladoAvHuaynacapac/rutasflujo.rou.xml"/>
    </netedit>

    <report>
        <aggregate-warnings value="5"/>
    </report>

</configuration>
-->

<additional xmlns:xsi="http://www.w3.org/2001/XMLSchema-instance" xsi:noNamespaceSchemaLocation="http://sumo.dlr.de/xsd/additional_file.xsd">
    <e1Detector id="tram_detector" lane="676078880#1_0" pos="67.64" freq="1.00" file="tram_detector.xml"/>
    <e1Detector id="tram_detector2" lane="1023790814_0" pos="72.56" freq="1.00" file="tram_detector2.xml"/>
    <e1Detector id="tram_detector3" lane="427421017#1_0" pos="89.83" freq="1.00" file="tram_detector3.xml"/>
</additional>
