<?xml version="1.0" encoding="UTF-8"?>

<!-- generated on 2024-07-10 18:37:33 by Eclipse SUMO jtrrouter Version 1.20.0
<configuration xmlns:xsi="http://www.w3.org/2001/XMLSchema-instance" xsi:noNamespaceSchemaLocation="http://sumo.dlr.de/xsd/jtrrouterConfiguration.xsd">

    <input>
        <net-file value="huaynacapac.net.xml"/>
        <route-files value="p2.xml"/>
        <turn-ratio-files value="p3.xml"/>
    </input>

    <output>
        <output-file value="rutasJTrrouter.rou.xml"/>
    </output>

    <processing>
        <randomize-flows value="true"/>
        <remove-loops value="true"/>
        <sink-edges value="559164160,370601722#1,893253783,410645794,42492699#4,893252088,893240697,940158936#2,42143918#12,300069416#0,42141326#0,311212628#1,337277984#6,118664583#0,48909342#5,894151134#0,398532019#0,45421575#2,492470513#0,45421576#0,-48202930"/>
    </processing>

    <report>
        <ignore-errors value="true"/>
    </report>

</configuration>
-->

<routes xmlns:xsi="http://www.w3.org/2001/XMLSchema-instance" xsi:noNamespaceSchemaLocation="http://sumo.dlr.de/xsd/routes_file.xsd">
    <vType id="tranvia" vClass="tram"/>
    <flow id="flow_0" type="tranvia" begin="0.00" from="676078880#1" to="427421017#4" via="1023790814 427421017#1 427421017#3" end="50600.00" vehsPerHour="4.00"/>
    <flow id="flow_1" type="tranvia" begin="44.00" from="416777760#4" to="994042479#1" via="416777760#5" end="50600.00" vehsPerHour="4.00"/>
    
    <vType id="bus1" vClass="coach" color="green" maxSpeed="4.51"/>
    <vType id="bus2" vClass="coach" color="blue" maxSpeed="4.56"/> 
    <vType id="bus3" vClass="coach" color="yellow" maxSpeed="4.46"/> 
    <vType id="bus4" vClass="coach" color="0,255,255" maxSpeed="4.55"/>
    <vType id="bus5" vClass="coach" color="128,0,128" maxSpeed="4.49"/>
    <vType id="bus6" vClass="coach" color="210,180,140" maxSpeed="4.62"/>
    <vType id="bus7" vClass="coach" color="255,192,203" maxSpeed="4.46"/>
    <vType id="bus8" vClass="coach" color="64,224,208" maxSpeed="4.55"/>
    <vType id="bus9" vClass="coach" color="255,99,71" maxSpeed="4.61"/>

    <!-- RUTAS PARA BUSES DE IDA (SALEN DE LA MARISCAL LAMAR HASTA EL VERGEL) -->

    <route id="linea2_ida" edges="48202930 48202929#0 48202929#1 48202921 389741417#0 389741417#1 389741416 389741419 48202923 48202922 47861233 47861236 604749597 47861237 389741418 60204530"> 
        <stop busStop="bs_0" duration="42"/> <!-- Mariscal Lamar -->
        <stop busStop="bs_1" duration="45"/> <!-- San Blas -->
        <stop busStop="bs_2" duration="43"/> <!-- Teresa Valse -->
        <stop busStop="bs_3" duration="40"/> <!-- Banco Central --> 
        
    </route>
    
    <route id="linea7_ida" edges="48202930 48202929#0 48202929#1 48202921 389741417#0 389741417#1 389741416 389741419 48202923 48202922 47861233 47861236 604749597 47861237 389741418 60204530"> 
        <stop busStop="bs_0" duration="45"/> <!-- Mariscal Lamar -->
        <stop busStop="bs_1" duration="48"/> <!-- San Blas -->
        <stop busStop="bs_2" duration="46"/> <!-- Teresa Valse -->
        <stop busStop="bs_3" duration="44"/> <!-- Banco Central -->
    </route>
    
    <route id="linea10_ida" edges="48202930 48202929#0 48202929#1 48202921 389741417#0 389741417#1 389741416 389741419 48202923 48202922 47861233 47861236 604749597 47861237 389741418 60204530"> 
        <stop busStop="bs_0" duration="35"/> <!-- Mariscal Lamar -->
        <stop busStop="bs_1" duration="42"/> <!-- San Blas -->
        <stop busStop="bs_2" duration="36"/> <!-- Teresa Valse -->
        <stop busStop="bs_3" duration="38"/> <!-- Banco Central -->
    </route>
    
    <route id="linea15_ida" edges="45421575#2 45421575#3 48202929#0 48202929#1 48202921 389741417#0 389741417#1 389741416 389741419 48202923 48202922 47861233 47861236 604749597 47861237 389741418 60204530"> 
        <stop busStop="bs_6" duration="39"/> <!-- Presidente Rocafuerte -->
        <stop busStop="bs_1" duration="40"/> <!-- San Blas -->
        <stop busStop="bs_2" duration="38"/> <!-- Teresa Valse -->
        <stop busStop="bs_3" duration="39"/> <!-- Banco Central -->
    </route>
    
    <route id="linea22_ida" edges="48202930 48202929#0 48202929#1 48202921 389741417#0 389741417#1 389741416 389741419 48202923 48202922 47861233 47861236 604749597 47861237 389741418 60204530"> 
        <stop busStop="bs_0" duration="36"/> <!-- Mariscal Lamar -->
        <stop busStop="bs_1" duration="39"/> <!-- San Blas -->
        <stop busStop="bs_2" duration="38"/> <!-- Teresa Valse -->
        <stop busStop="bs_3" duration="39"/> <!-- Banco Central -->
    </route>
    
    <route id="linea26_ida" edges="48202930 48202929#0 48202929#1 48202921 389741417#0 389741417#1 389741416 389741419 48202923 48202922 47861233 47861236 604749597 47861237 389741418 60204530"> 
        <stop busStop="bs_0" duration="35"/> <!-- Mariscal Lamar -->
        <stop busStop="bs_1" duration="40"/> <!-- San Blas -->
        <stop busStop="bs_2" duration="39"/> <!-- Teresa Valse -->
        <stop busStop="bs_3" duration="38"/> <!-- Banco Central -->
    </route>
    
    <route id="linea14_ida" edges="42143918#12 48202922 47861233 47861236 604749597 47861237 389741418 60204530"> 
        <stop busStop="bs_5" duration="41"/> <!-- Miguel Angel Estrella -->
        <stop busStop="bs_3" duration="38"/> <!-- Banco Central -->
    </route>
    
    <route id="linea14SP_ida" edges="42143918#12 48202922 47861233 47861236 604749597 47861237 389741418 60204530"> 
        <stop busStop="bs_5" duration="45"/> <!-- Miguel Angel Estrella -->
        <stop busStop="bs_3" duration="41"/> <!-- Banco Central -->
    </route>
    
    <route id="linea26C_ida" edges="48202930 48202929#0 48202929#1 48202921 389741417#0 389741417#1 389741416 389741419 48202923 48202922 47861233 47861236 604749597 47861237 389741418 60204530"> 
        <stop busStop="bs_0" duration="38"/> <!-- Mariscal Lamar -->
        <stop busStop="bs_1" duration="45"/> <!-- San Blas -->
        <stop busStop="bs_2" duration="41"/> <!-- Teresa Valse -->
        <stop busStop="bs_3" duration="46"/> <!-- Banco Central -->
    </route>
    
    
    <!-- RUTAS PARA BUSES DE REGRESO (SALEN DEL VERGEL) -->
    
    <route id="linea2_regreso" edges="-60204530 -389741418 -47861237 -604749597 -47861236 -47861233 -48202922 -48202923 -389741419 -389741416 -389741417#1 -389741417#0 -48202921 398532019#0 48583899#0 48583899#1"> 
        <stop busStop="bs_7" duration="40"/> <!-- Alfonso Malo -->
        <stop busStop="bs_8" duration="45"/> <!-- Honorato Vasquez -->
        <stop busStop="bs_9" duration="30"/> <!-- La Republica -->
        <stop busStop="bs_12" duration="40"/> <!-- Jose Joaquin Olmedo -->
    </route>
    
    <route id="linea7_regreso" edges="-60204530 -389741418 -47861237 -604749597 -47861236 -47861233 -48202922 -48202923 -389741419 -389741416 -389741417#1 -389741417#0 -48202921 398532019#0 48583899#0 48583899#1"> 
        <stop busStop="bs_7" duration="38"/> <!-- Alfonso Malo -->
        <stop busStop="bs_8" duration="40"/> <!-- Honorato Vasquez -->
        <stop busStop="bs_9" duration="45"/> <!-- La Republica -->
        <stop busStop="bs_12" duration="40"/> <!-- Jose Joaquin Olmedo -->
    </route>
    
    <route id="linea15_regreso" edges="-60204530 -389741418 -47861237 -604749597 -47861236 -47861233 -48202922 -48202923 -389741419 -389741416 -389741417#1 -389741417#0 -48202921 398532019#0 398532019#1 398532019#2"> 
        <stop busStop="bs_7" duration="35"/> <!-- Alfonso Malo -->
        <stop busStop="bs_8" duration="45"/> <!-- Honorato Vasquez -->
        <stop busStop="bs_9" duration="45"/> <!-- La Republica -->
        <stop busStop="bs_10" duration="40"/> <!-- Gonzales Suarez -->
    </route>
    
    <route id="linea22_regreso" edges="-60204530 -389741418 -47861237 -604749597 -47861236 -47861233 -48202922 -48202923 -389741419 -389741416 -389741417#1 -389741417#0 -48202921 398532019#0 48583899#0 48583899#1"> 
        <stop busStop="bs_7" duration="37"/> <!-- Alfonso Malo -->
        <stop busStop="bs_8" duration="42"/> <!-- Honorato Vasquez -->
        <stop busStop="bs_9" duration="40"/> <!-- La Republica -->
        <stop busStop="bs_12" duration="45"/> <!-- Jose Joaquin Olmedo -->
    </route>
    
    <route id="linea24_regreso" edges="-60204530 -389741418 -47861237 -604749597 -47861236 -47861233 -48202922 -48202923 -389741419 -389741416 118664583#0 118664583#1 118664583#2"> 
        <stop busStop="bs_7" duration="40"/> <!-- Alfonso Malo -->
        <stop busStop="bs_8" duration="45"/> <!-- Honorato Vasquez -->
        <stop busStop="bs_11" duration="30"/> <!-- Aprofe -->
    </route>

 
    <!-- IDA -->
    <flow id="flow_1" type="bus1" route="linea2_ida" begin="0" end="43200" period="720"/>
    <flow id="flow_2" type="bus1" route="linea2_regreso" begin="15" end="43200" period="1080"/>
    <flow id="flow_3" type="bus2" route="linea7_ida" begin="60" end="43200" period="240"/>
    <flow id="flow_4" type="bus2" route="linea7_regreso" begin="75" end="43200" period="420"/>
    <flow id="flow_5" type="bus3" route="linea10_ida" begin="120" end="43200" period="960"/>
    <flow id="flow_6" type="bus4" route="linea15_ida" begin="180" end="43200" period="600"/>
    <flow id="flow_7" type="bus4" route="linea15_regreso" begin="190" end="43200" period="600"/>
    <flow id="flow_8" type="bus5" route="linea22_ida" begin="240" end="43200" period="300"/>
    <flow id="flow_9" type="bus5" route="linea22_regreso" begin="250" end="43200" period="300"/>
    <flow id="flow_10" type="bus6" route="linea26_ida" begin="300" end="43200" period="900"/>
    <flow id="flow_11" type="bus7" route="linea14_ida" begin="360" end="43200" period="840"/>
    <flow id="flow_12" type="bus9" route="linea24_regreso" begin="370" end="43200" period="480"/>
    <flow id="flow_13" type="bus8" route="linea14SP_ida" begin="420" end="43200" period="2700"/>
    <flow id="flow_14" type="bus9" route="linea26C_ida" begin="480" end="43200" period="3200"/>
    
    <vType id="auto" maxSpeed="6.56" vClass="passenger" color="red"/>
    <vehicle id="CLauto0.0" type="auto" depart="0.79" departLane="free">
        <route edges="893257053 60204530"/>
    </vehicle>
    <vehicle id="JAauto0.0" type="auto" depart="2.36" departLane="free">
        <route edges="42143918#12 300069416#0"/>
    </vehicle>
    <vehicle id="Pio2auto0.0" type="auto" depart="2.83" departLane="free">
        <route edges="542435212 542440756 48202933 48500734#13 48500734#1 48500734#2 48500734#3 48500734#4 48500734#5 45421576#0"/>
    </vehicle>
    <vehicle id="RAauto0.0" type="auto" depart="9.74" departLane="free">
        <route edges="48909342#5 389741417#0 389741417#1 389741416 389741419 48202923 48202922 47861233 47861236 604749597 893253783"/>
    </vehicle>
    <vehicle id="ROauto0.0" type="auto" depart="11.12" departLane="free">
        <route edges="45421575#2 45421575#3 48202929#0 48202929#1 48202921 389741417#0 389741417#1 389741416 389741419 42141326#0"/>
    </vehicle>
    <vehicle id="JAauto0.1" type="auto" depart="13.05" departLane="free">
        <route edges="42143918#12 300069416#0"/>
    </vehicle>
    <vehicle id="CLauto0.1" type="auto" depart="13.56" departLane="free">
        <route edges="893257053 60204530"/>
    </vehicle>
    <vehicle id="CLBauto0.0" type="auto" depart="16.72" departLane="free">
        <route edges="-60204530 -389741418 -47861237 -604749597 -47861236 893252088"/>
    </vehicle>
    <vehicle id="MSauto0.0" type="auto" depart="18.13" departLane="free">
        <route edges="337277984#6 -389741416 -389741417#1 -389741417#0 -48202921 398532019#0"/>
    </vehicle>
    <vehicle id="RAauto0.1" type="auto" depart="18.39" departLane="free">
        <route edges="48909342#5 894151134#0"/>
    </vehicle>
    <vehicle id="JAauto0.2" type="auto" depart="22.71" departLane="free">
        <route edges="42143918#12 300069416#0"/>
    </vehicle>
    <vehicle id="CLauto0.2" type="auto" depart="27.48" departLane="free">
        <route edges="893257053 559164160"/>
    </vehicle>
    <vehicle id="GCauto0.0" type="auto" depart="36.86" departLane="free">
        <route edges="554582109#1 554582109#2 -48202929#1 -48202929#0 -48202930"/>
    </vehicle>
    <vehicle id="JAauto0.3" type="auto" depart="39.03" departLane="free">
        <route edges="42143918#12 300069416#0"/>
    </vehicle>
    <vehicle id="CLBauto0.1" type="auto" depart="47.01" departLane="free">
        <route edges="-60204530 -389741418 -47861237 -604749597 -47861236 -47861233 -48202922 300069416#0"/>
    </vehicle>
    <vehicle id="JAauto0.4" type="auto" depart="50.60" departLane="free">
        <route edges="42143918#12 48202922 893240697"/>
    </vehicle>
    <vehicle id="Pio2auto0.1" type="auto" depart="52.47" departLane="free">
        <route edges="542435212 542440756 399285450#0 399285450#1 399285450#2"/>
    </vehicle>
    <vehicle id="RAauto0.2" type="auto" depart="55.65" departLane="free">
        <route edges="48909342#5 894151134#0"/>
    </vehicle>
    <vehicle id="CLauto0.3" type="auto" depart="57.85" departLane="free">
        <route edges="893257053 -389741418 -47861237 -604749597 410645794"/>
    </vehicle>
    <vehicle id="JAauto0.5" type="auto" depart="81.63" departLane="free">
        <route edges="42143918#12 300069416#0"/>
    </vehicle>
    <vehicle id="GCauto0.1" type="auto" depart="88.60" departLane="free">
        <route edges="554582109#1 554582109#2 398532019#0"/>
    </vehicle>
    <vehicle id="SAauto0.0" type="auto" depart="89.60" departLane="free">
        <route edges="552651836 48500734#2 48500734#3 48500734#4 48500734#5 45421576#0"/>
    </vehicle>
    <vehicle id="Eauto0.0" type="auto" depart="94.84" departLane="free">
        <route edges="311212628#1 42141326#0"/>
    </vehicle>
    <vehicle id="CLBauto0.2" type="auto" depart="100.63" departLane="free">
        <route edges="-60204530 -389741418 -47861237 -604749597 -47861236 -47861233 -48202922 -48202923 -389741419 -389741416 -389741417#1 -389741417#0 -48202921 398532019#0"/>
    </vehicle>
    <vehicle id="ROauto0.1" type="auto" depart="101.43" departLane="free">
        <route edges="45421575#2 45421575#3 492470513#0"/>
    </vehicle>
    <vehicle id="JAauto0.6" type="auto" depart="107.79" departLane="free">
        <route edges="42143918#12 300069416#0"/>
    </vehicle>
    <vehicle id="CLauto0.4" type="auto" depart="108.52" departLane="free">
        <route edges="893257053 -389741418 -47861237 -604749597 -47861236 -47861233 -48202922 -48202923 -389741419 -389741416 -389741417#1 -389741417#0 -48202921 398532019#0"/>
    </vehicle>
    <vehicle id="JAauto0.7" type="auto" depart="116.59" departLane="free">
        <route edges="42143918#12 -48202923 -389741419 -389741416 -389741417#1 -389741417#0 -48202921 398532019#0"/>
    </vehicle>
    <vehicle id="CLauto0.5" type="auto" depart="121.78" departLane="free">
        <route edges="893257053 -389741418 -47861237 -604749597 410645794"/>
    </vehicle>
    <vehicle id="JAauto0.8" type="auto" depart="128.54" departLane="free">
        <route edges="42143918#12 300069416#0"/>
    </vehicle>
    <vehicle id="GCauto0.2" type="auto" depart="136.66" departLane="free">
        <route edges="554582109#1 554582109#2 398532019#0"/>
    </vehicle>
    <vehicle id="Eauto0.1" type="auto" depart="139.18" departLane="free">
        <route edges="311212628#1 48202923 48202922 47861233 47861236 604749597 47861237 389741418 60204530"/>
    </vehicle>
    <vehicle id="Pio2auto0.2" type="auto" depart="149.63" departLane="free">
        <route edges="542435212 542440756 399285450#0 399285450#1"/>
    </vehicle>
    <vehicle id="GCauto0.3" type="auto" depart="150.67" departLane="free">
        <route edges="554582109#1 554582109#2 -48202929#1 -48202929#0 492470513#0"/>
    </vehicle>
    <vehicle id="CLauto0.6" type="auto" depart="158.69" departLane="free">
        <route edges="893257053 559164160"/>
    </vehicle>
    <vehicle id="RAauto0.3" type="auto" depart="163.02" departLane="free">
        <route edges="48909342#5 894151134#0"/>
    </vehicle>
    <vehicle id="ROauto0.2" type="auto" depart="168.38" departLane="free">
        <route edges="45421575#2 45421575#3 492470513#0"/>
    </vehicle>
    <vehicle id="CLauto0.7" type="auto" depart="169.47" departLane="free">
        <route edges="893257053 -389741418 -47861237 -604749597 410645794"/>
    </vehicle>
    <vehicle id="CLBauto0.3" type="auto" depart="169.75" departLane="free">
        <route edges="-60204530 -389741418 -47861237 -604749597 -47861236 893252088"/>
    </vehicle>
    <vehicle id="ROauto0.3" type="auto" depart="170.05" departLane="free">
        <route edges="45421575#2 45421575#3 48202929#0 48202929#1 48202921 894151134#0"/>
    </vehicle>
    <vehicle id="JAauto0.9" type="auto" depart="179.52" departLane="free">
        <route edges="42143918#12 300069416#0"/>
    </vehicle>
    <vehicle id="CLauto0.8" type="auto" depart="186.01" departLane="free">
        <route edges="893257053 60204530"/>
    </vehicle>
    <vehicle id="CLauto0.9" type="auto" depart="188.13" departLane="free">
        <route edges="893257053 559164160"/>
    </vehicle>
    <vehicle id="Pio2auto0.3" type="auto" depart="188.21" departLane="free">
        <route edges="542435212 542440756 399285450#0 399285450#1 399285450#2"/>
    </vehicle>
    <vehicle id="Pio2auto0.4" type="auto" depart="189.20" departLane="free">
        <route edges="542435212 542440756 399285450#0 399285450#1 518706138#1 552412427"/>
    </vehicle>
    <vehicle id="JAauto0.10" type="auto" depart="196.41" departLane="free">
        <route edges="42143918#12 300069416#0"/>
    </vehicle>
    <vehicle id="CLauto0.10" type="auto" depart="201.67" departLane="free">
        <route edges="893257053 -389741418 -47861237 -604749597 410645794"/>
    </vehicle>
    <vehicle id="NUauto0.0" type="auto" depart="202.95" departLane="free">
        <route edges="48202925#1 542435211 399285450#0 399285450#1 399285450#2"/>
    </vehicle>
    <vehicle id="Pio1auto0.0" type="auto" depart="207.58" departLane="free">
        <route edges="399285452#3 542440756 399285450#0 399285450#1 518706138#1 552412427"/>
    </vehicle>
    <vehicle id="CLauto0.11" type="auto" depart="207.72" departLane="free">
        <route edges="893257053 -389741418 -47861237 -604749597 410645794"/>
    </vehicle>
    <vehicle id="CLBauto0.4" type="auto" depart="209.51" departLane="free">
        <route edges="-60204530 -389741418 -47861237 -604749597 410645794"/>
    </vehicle>
    <vehicle id="ROauto0.4" type="auto" depart="210.76" departLane="free">
        <route edges="45421575#2 45421575#3 492470513#0"/>
    </vehicle>
    <vehicle id="JAauto0.11" type="auto" depart="211.05" departLane="free">
        <route edges="42143918#12 300069416#0"/>
    </vehicle>
    <vehicle id="CLauto0.12" type="auto" depart="212.57" departLane="free">
        <route edges="893257053 -389741418 -47861237 -604749597 -47861236 -47861233 -48202922 -48202923 -389741419 -389741416 -389741417#1 -389741417#0 -48202921 -48202929#1 -48202929#0 -48202930"/>
    </vehicle>
    <vehicle id="JAauto0.12" type="auto" depart="214.16" departLane="free">
        <route edges="42143918#12 -48202923 -389741419 -389741416 -389741417#1 -389741417#0 -48202921 398532019#0"/>
    </vehicle>
    <vehicle id="ROauto0.5" type="auto" depart="215.86" departLane="free">
        <route edges="45421575#2 45421575#3 -48202930"/>
    </vehicle>
    <vehicle id="Pio1auto0.1" type="auto" depart="222.36" departLane="free">
        <route edges="399285452#3 542440756 48202933 48500734#13 48500734#1 48500734#2 303057278 48202930 492470513#0"/>
    </vehicle>
    <vehicle id="GCauto0.4" type="auto" depart="225.98" departLane="free">
        <route edges="554582109#1 554582109#2 -48202929#1 -48202929#0 492470513#0"/>
    </vehicle>
    <vType id="camion" maxSpeed="4.46" vClass="truck" color="white"/>
    <vehicle id="Pio1camion0.0" type="camion" depart="229.61" departLane="free">
        <route edges="399285452#2 285931678"/>
    </vehicle>
    <vehicle id="NUauto0.1" type="auto" depart="235.68" departLane="free">
        <route edges="48202925#1 542435211 48202933 48500734#13 48500734#1 48500734#2 48500734#3 48500734#4 48500734#5 45421576#0"/>
    </vehicle>
    <vehicle id="MSauto0.1" type="auto" depart="238.38" departLane="free">
        <route edges="337277984#6 -389741416 -389741417#1 -389741417#0 -48202921 398532019#0"/>
    </vehicle>
    <vehicle id="ROauto0.6" type="auto" depart="240.76" departLane="free">
        <route edges="45421575#2 45421575#3 492470513#0"/>
    </vehicle>
    <vehicle id="ROauto0.7" type="auto" depart="241.82" departLane="free">
        <route edges="45421575#2 45421575#3 48202929#0 48202929#1 48202921 389741417#0 389741417#1 389741416 389741419 42141326#0"/>
    </vehicle>
    <vehicle id="Pio2auto0.5" type="auto" depart="244.16" departLane="free">
        <route edges="542435212 542440756 48202933 48500734#13 48500734#1 48500734#2 303057278 48202930 492470513#0"/>
    </vehicle>
    <vehicle id="ROauto0.8" type="auto" depart="254.09" departLane="free">
        <route edges="45421575#2 45421575#3 492470513#0"/>
    </vehicle>
    <vehicle id="GCauto0.5" type="auto" depart="282.71" departLane="free">
        <route edges="554582109#1 554582109#2 -48202929#1 -48202929#0 492470513#0"/>
    </vehicle>
    <vehicle id="JAcamion0.0" type="camion" depart="289.45" departLane="free">
        <route edges="42143918#12 -48202923 -389741419 -389741416 -389741417#1 -389741417#0 -48202921 -48202929#1 -48202929#0 -48202930"/>
    </vehicle>
    <vehicle id="GCauto0.6" type="auto" depart="292.21" departLane="free">
        <route edges="554582109#1 554582109#2 398532019#0"/>
    </vehicle>
    <vehicle id="Pio1auto0.2" type="auto" depart="305.15" departLane="free">
        <route edges="399285452#3 542440756 399285450#0 399285450#1 399285450#2"/>
    </vehicle>
    <vehicle id="JAauto0.13" type="auto" depart="311.58" departLane="free">
        <route edges="42143918#12 48202922 893240697"/>
    </vehicle>
    <vehicle id="NUauto0.2" type="auto" depart="312.98" departLane="free">
        <route edges="48202925#1 542435211 399285450#0 399285450#1 399285450#2"/>
    </vehicle>
    <vehicle id="JAauto0.14" type="auto" depart="315.31" departLane="free">
        <route edges="42143918#12 300069416#0"/>
    </vehicle>
    <vehicle id="CLBauto0.5" type="auto" depart="319.61" departLane="free">
        <route edges="-60204530 -389741418 -47861237 -604749597 410645794"/>
    </vehicle>
    <vehicle id="JAauto0.15" type="auto" depart="321.07" departLane="free">
        <route edges="42143918#12 48202922 47861233 47861236 604749597 47861237 389741418 60204530"/>
    </vehicle>
    <vehicle id="CLBauto0.6" type="auto" depart="322.82" departLane="free">
        <route edges="-60204530 -389741418 -47861237 -604749597 410645794"/>
    </vehicle>
    <vehicle id="CLauto0.13" type="auto" depart="325.69" departLane="free">
        <route edges="893257053 -389741418 -47861237 -604749597 -47861236 -47861233 -48202922 300069416#0"/>
    </vehicle>
    <vehicle id="Eauto0.2" type="auto" depart="326.27" departLane="free">
        <route edges="311212628#1 42141326#0"/>
    </vehicle>
    <vehicle id="ROauto0.9" type="auto" depart="337.63" departLane="free">
        <route edges="45421575#2 45421575#3 492470513#0"/>
    </vehicle>
    <vehicle id="ROauto0.10" type="auto" depart="342.87" departLane="free">
        <route edges="45421575#2 45421575#3 48202929#0 48202929#1 48202921 894151134#0"/>
    </vehicle>
    <vehicle id="MSauto0.2" type="auto" depart="345.66" departLane="free">
        <route edges="337277984#6 389741419 42141326#0"/>
    </vehicle>
    <vehicle id="Eauto0.3" type="auto" depart="349.67" departLane="free">
        <route edges="311212628#1 42141326#0"/>
    </vehicle>
    <vehicle id="JAauto0.16" type="auto" depart="352.22" departLane="free">
        <route edges="42143918#12 48202922 47861233 47861236 604749597 47861237 389741418 60204530"/>
    </vehicle>
    <vehicle id="MSauto0.3" type="auto" depart="352.32" departLane="free">
        <route edges="337277984#6 389741419 42141326#0"/>
    </vehicle>
    <vehicle id="CLauto0.14" type="auto" depart="353.09" departLane="free">
        <route edges="893257053 -389741418 -47861237 -604749597 -47861236 893252088"/>
    </vehicle>
    <vehicle id="GCauto0.7" type="auto" depart="357.13" departLane="free">
        <route edges="554582109#1 554582109#2 -48202929#1 -48202929#0 -48202930"/>
    </vehicle>
    <vehicle id="CLauto0.15" type="auto" depart="363.29" departLane="free">
        <route edges="893257053 559164160"/>
    </vehicle>
    <vehicle id="CLBauto0.7" type="auto" depart="363.53" departLane="free">
        <route edges="-60204530 -389741418 -47861237 -604749597 410645794"/>
    </vehicle>
    <vehicle id="CLBauto0.8" type="auto" depart="368.78" departLane="free">
        <route edges="-60204530 -389741418 -47861237 -604749597 410645794"/>
    </vehicle>
    <vehicle id="JAauto0.17" type="auto" depart="370.79" departLane="free">
        <route edges="42143918#12 -48202923 -389741419 -389741416 -389741417#1 -389741417#0 -48202921 398532019#0"/>
    </vehicle>
    <vehicle id="RAauto0.4" type="auto" depart="381.92" departLane="free">
        <route edges="48909342#5 389741417#0 389741417#1 389741416 389741419 42141326#0"/>
    </vehicle>
    <vehicle id="CLBauto0.9" type="auto" depart="382.76" departLane="free">
        <route edges="-60204530 -389741418 -47861237 -604749597 410645794"/>
    </vehicle>
    <vehicle id="CLauto0.16" type="auto" depart="386.17" departLane="free">
        <route edges="893257053 559164160"/>
    </vehicle>
    <vehicle id="CLBauto0.10" type="auto" depart="397.95" departLane="free">
        <route edges="-60204530 -389741418 -47861237 -604749597 410645794"/>
    </vehicle>
    <vehicle id="JAauto0.18" type="auto" depart="398.44" departLane="free">
        <route edges="42143918#12 300069416#0"/>
    </vehicle>
    <vehicle id="RAauto0.5" type="auto" depart="400.80" departLane="free">
        <route edges="48909342#5 389741417#0 389741417#1 389741416 389741419 48202923 48202922 47861233 47861236 604749597 893253783"/>
    </vehicle>
    <vehicle id="CLauto0.17" type="auto" depart="401.16" departLane="free">
        <route edges="893257053 -389741418 -47861237 -604749597 -47861236 -47861233 -48202922 -48202923 -389741419 -389741416 -389741417#1 -389741417#0 -48202921 398532019#0"/>
    </vehicle>
    <vehicle id="RAauto0.6" type="auto" depart="401.49" departLane="free">
        <route edges="48909342#5 389741417#0 389741417#1 389741416 389741419 48202923 48202922 893240697"/>
    </vehicle>
    <vehicle id="CLBauto0.11" type="auto" depart="407.58" departLane="free">
        <route edges="-60204530 -389741418 -47861237 -604749597 410645794"/>
    </vehicle>
    <vehicle id="CLauto0.18" type="auto" depart="410.68" departLane="free">
        <route edges="893257053 60204530"/>
    </vehicle>
    <vehicle id="CLBauto0.12" type="auto" depart="417.29" departLane="free">
        <route edges="-60204530 -389741418 -47861237 -604749597 410645794"/>
    </vehicle>
    <vehicle id="Pio2auto0.6" type="auto" depart="422.38" departLane="free">
        <route edges="542435212 542440756 48202933 48500734#13 48500734#1 48500734#2 303057278 48202930 492470513#0"/>
    </vehicle>
    <vehicle id="Pio2auto0.7" type="auto" depart="422.96" departLane="free">
        <route edges="542435212 542440756 48202933 48500734#13 48500734#1 48500734#2 303057278 48202930 492470513#0"/>
    </vehicle>
    <vehicle id="MSauto0.4" type="auto" depart="423.68" departLane="free">
        <route edges="337277984#6 389741419 48202923 48202922 893240697"/>
    </vehicle>
    <vehicle id="JAauto0.19" type="auto" depart="424.84" departLane="free">
        <route edges="42143918#12 48202922 893240697"/>
    </vehicle>
    <vehicle id="Vauto0.0" type="auto" depart="425.96" departLane="free">
        <route edges="940158936#2 893240697"/>
    </vehicle>
    <vehicle id="JAauto0.20" type="auto" depart="426.92" departLane="free">
        <route edges="42143918#12 300069416#0"/>
    </vehicle>
    <vehicle id="GCauto0.8" type="auto" depart="429.67" departLane="free">
        <route edges="554582109#1 554582109#2 -48202929#1 -48202929#0 -48202930"/>
    </vehicle>
    <vehicle id="MSauto0.5" type="auto" depart="433.87" departLane="free">
        <route edges="337277984#6 -389741416 -389741417#1 -389741417#0 -48202921 398532019#0"/>
    </vehicle>
    <vehicle id="JAauto0.21" type="auto" depart="435.93" departLane="free">
        <route edges="42143918#12 300069416#0"/>
    </vehicle>
    <vehicle id="MSauto0.6" type="auto" depart="436.43" departLane="free">
        <route edges="337277984#6 389741419 42141326#0"/>
    </vehicle>
    <vehicle id="JAauto0.22" type="auto" depart="441.97" departLane="free">
        <route edges="42143918#12 300069416#0"/>
    </vehicle>
    <vehicle id="NUauto0.3" type="auto" depart="446.89" departLane="free">
        <route edges="48202925#1 542435211 48202933 48500734#13 48500734#1 48500734#2 303057278 48202930 492470513#0"/>
    </vehicle>
    <vehicle id="CLauto0.19" type="auto" depart="447.19" departLane="free">
        <route edges="893257053 60204530"/>
    </vehicle>
    <vehicle id="CLauto0.20" type="auto" depart="448.25" departLane="free">
        <route edges="893257053 559164160"/>
    </vehicle>