<?xml version="1.0" encoding="UTF-8"?>

<!-- generated on 2024-07-08 22:24:23 by Eclipse SUMO netconvert Version v1_19_0+1520-dc4640af2ac
<configuration xmlns:xsi="http://www.w3.org/2001/XMLSchema-instance" xsi:noNamespaceSchemaLocation="http://sumo.dlr.de/xsd/netconvertConfiguration.xsd">

    <input>
        <osm-files value="map5.osm"/>
    </input>

    <output>
        <output-file value="avhuaynacapac.net.xml"/>
    </output>

    <projection>
        <proj.utm value="true"/>
    </projection>

    <processing>
        <geometry.remove value="true"/>
        <edges.join value="true"/>
    </processing>

    <ramp_guessing>
        <ramps.guess value="true"/>
    </ramp_guessing>

    <edge_removal>
        <remove-edges.isolated value="true"/>
    </edge_removal>

    <report>
        <verbose value="true"/>
    </report>

</configuration>
-->

<net version="1.20" junctionCornerDetail="5" limitTurnSpeed="5.50" xmlns:xsi="http://www.w3.org/2001/XMLSchema-instance" xsi:noNamespaceSchemaLocation="http://sumo.dlr.de/xsd/net_file.xsd">

    <location netOffset="-720791.05,321713.89" convBoundary="0.00,0.00,4319.34,2987.13" origBoundary="-79.013689,-2.908832,-78.974867,-2.881791" projParameter="+proj=utm +zone=17 +ellps=WGS84 +datum=WGS84 +units=m +no_defs"/>

    <type id="highway.footway" priority="1" numLanes="1" speed="2.78" allow="pedestrian" oneway="1" width="2.00"/>
    <type id="highway.living_street" priority="2" numLanes="1" speed="2.78" disallow="tram rail_urban rail rail_electric rail_fast ship" oneway="0"/>
    <type id="highway.path" priority="1" numLanes="1" speed="5.56" allow="pedestrian bicycle" oneway="0" width="2.00"/>
    <type id="highway.residential" priority="3" numLanes="1" speed="13.89" disallow="tram rail_urban rail rail_electric rail_fast ship" oneway="0"/>
    <type id="highway.secondary" priority="11" numLanes="1" speed="27.78" disallow="tram rail_urban rail rail_electric rail_fast ship" oneway="0"/>
    <type id="highway.secondary_link" priority="6" numLanes="1" speed="22.22" disallow="tram rail_urban rail rail_electric rail_fast ship" oneway="0"/>
    <type id="highway.service" priority="1" numLanes="1" speed="5.56" allow="pedestrian delivery bicycle" oneway="0"/>
    <type id="highway.tertiary" priority="10" numLanes="1" speed="22.22" disallow="tram rail_urban rail rail_electric rail_fast ship" oneway="0"/>
    <type id="highway.tertiary_link" priority="5" numLanes="1" speed="22.22" disallow="tram rail_urban rail rail_electric rail_fast ship" oneway="0"/>
    <type id="railway.tram" priority="17" numLanes="1" speed="13.89" allow="tram" oneway="1"/>

    <edge id=":10739710986_0" function="internal">
        <lane id=":10739710986_0_0" index="0" allow="pedestrian delivery bicycle" speed="3.65" length="4.67" shape="1978.81,1643.63 1977.46,1643.12 1976.89,1642.43 1977.10,1641.56 1978.09,1640.51"/>
    </edge>
    <edge id=":10917526125_0" function="internal">
        <lane id=":10917526125_0_0" index="0" disallow="tram rail_urban rail rail_electric rail_fast ship" speed="8.33" length="9.41" shape="1855.22,1129.86 1846.05,1131.98"/>
    </edge>
    <edge id=":10917526125_1" function="internal">
        <lane id=":10917526125_1_0" index="0" allow="pedestrian delivery bicycle" speed="6.01" length="7.95" shape="1855.22,1129.86 1852.45,1130.28 1850.39,1130.10 1849.05,1129.31 1848.42,1127.92"/>
    </edge>
    <edge id=":10917526125_2" function="internal">
        <lane id=":10917526125_2_0" index="0" allow="pedestrian delivery bicycle" speed="6.26" length="7.87" shape="1851.58,1127.41 1851.42,1128.88 1850.45,1130.14 1848.66,1131.17 1846.05,1131.98"/>
    </edge>
    <edge id=":10917526125_3" function="internal">
        <lane id=":10917526125_3_0" index="0" allow="pedestrian delivery bicycle" speed="3.65" length="4.67" shape="1851.58,1127.41 1850.98,1128.72 1850.25,1129.25 1849.40,1128.98 1848.42,1127.92"/>
    </edge>
    <edge id=":10917526127_0" function="internal">
        <lane id=":10917526127_0_0" index="0" allow="pedestrian delivery bicycle" speed="4.98" length="5.07" shape="1846.18,1111.53 1845.83,1110.18 1845.13,1109.28 1844.09,1108.85 1842.69,1108.89"/>
    </edge>
    <edge id=":10917526127_1" function="internal">
        <lane id=":10917526127_1_0" index="0" allow="pedestrian delivery bicycle" speed="5.56" length="10.18" shape="1846.18,1111.53 1846.25,1108.69 1847.15,1106.52 1848.88,1105.01 1851.44,1104.18"/>
    </edge>
    <edge id=":10917526127_2" function="internal">
        <lane id=":10917526127_2_0" index="0" allow="pedestrian delivery bicycle" speed="3.65" length="4.67" shape="1846.18,1111.53 1846.85,1110.25 1847.60,1109.77 1848.44,1110.08 1849.36,1111.18"/>
    </edge>
    <edge id=":10917526127_3" function="internal">
        <lane id=":10917526127_3_0" index="0" allow="pedestrian delivery bicycle" speed="5.23" length="5.23" shape="1851.97,1107.34 1850.69,1107.76 1849.83,1108.55 1849.39,1109.69 1849.36,1111.18"/>
    </edge>
    <edge id=":10917526127_4" function="internal">
        <lane id=":10917526127_4_0" index="0" allow="pedestrian delivery bicycle" speed="5.56" length="9.41" shape="1851.97,1107.34 1842.69,1108.89"/>
    </edge>
    <edge id=":10917526127_5" function="internal">
        <lane id=":10917526127_5_0" index="0" allow="pedestrian delivery bicycle" speed="3.65" length="4.67" shape="1851.97,1107.34 1850.65,1106.75 1850.13,1106.02 1850.39,1105.17 1851.44,1104.18"/>
    </edge>
    <edge id=":10917526127_6" function="internal">
        <lane id=":10917526127_6_0" index="0" allow="pedestrian delivery bicycle" speed="5.56" length="9.41" shape="1842.16,1105.73 1851.44,1104.18"/>
    </edge>
    <edge id=":10917526127_7" function="internal">
        <lane id=":10917526127_7_0" index="0" allow="pedestrian delivery bicycle" speed="5.56" length="10.44" shape="1842.16,1105.73 1845.04,1105.66 1847.20,1106.55 1848.64,1108.39 1849.36,1111.18"/>
    </edge>
    <edge id=":10917526127_8" function="internal">
        <lane id=":10917526127_8_0" index="0" allow="pedestrian delivery bicycle" speed="3.65" length="4.67" shape="1842.16,1105.73 1843.48,1106.32 1844.00,1107.04 1843.74,1107.90 1842.69,1108.89"/>
    </edge>
    <edge id=":10917526128_0" function="internal">
        <lane id=":10917526128_0_0" index="0" allow="pedestrian delivery bicycle" speed="4.92" length="5.16" shape="1881.32,1105.59 1881.02,1104.18 1880.34,1103.27 1879.28,1102.85 1877.84,1102.92"/>
    </edge>
    <edge id=":10917526128_1" function="internal">
        <lane id=":10917526128_1_0" index="0" disallow="tram rail_urban rail rail_electric rail_fast ship" speed="13.89" length="9.36" shape="1881.32,1105.59 1880.80,1096.19"/>
        <lane id=":10917526128_1_1" index="1" disallow="tram rail_urban rail rail_electric rail_fast ship" speed="13.89" length="9.36" shape="1884.52,1105.37 1884.00,1096.07"/>
    </edge>
    <edge id=":10917526128_3" function="internal">
        <lane id=":10917526128_3_0" index="0" disallow="tram rail_urban rail rail_electric rail_fast ship" speed="13.89" length="9.17" shape="1890.39,1095.83 1890.90,1104.94"/>
        <lane id=":10917526128_3_1" index="1" disallow="tram rail_urban rail rail_electric rail_fast ship" speed="13.89" length="9.17" shape="1887.19,1095.95 1887.71,1105.15"/>
    </edge>
    <edge id=":10917526128_5" function="internal">
        <lane id=":10917526128_5_0" index="0" allow="pedestrian delivery bicycle" speed="8.05" length="2.40" shape="1887.19,1095.95 1886.68,1098.29"/>
    </edge>
    <edge id=":10917526128_9" function="internal">
        <lane id=":10917526128_9_0" index="0" allow="pedestrian delivery bicycle" speed="8.05" length="10.24" shape="1886.68,1098.29 1884.95,1100.24 1882.01,1101.78 1877.84,1102.92"/>
    </edge>
    <edge id=":10917526128_6" function="internal">
        <lane id=":10917526128_6_0" index="0" allow="pedestrian delivery bicycle" speed="5.57" length="5.58" shape="1877.23,1099.78 1878.83,1099.28 1879.96,1098.52 1880.62,1097.49 1880.80,1096.19"/>
    </edge>
    <edge id=":10917526128_7" function="internal">
        <lane id=":10917526128_7_0" index="0" allow="pedestrian delivery bicycle" speed="7.55" length="13.72" shape="1877.23,1099.78 1881.62,1099.38 1884.84,1100.14 1886.87,1102.06 1887.71,1105.15"/>
    </edge>
    <edge id=":10917526128_8" function="internal">
        <lane id=":10917526128_8_0" index="0" allow="pedestrian delivery bicycle" speed="3.65" length="4.67" shape="1877.23,1099.78 1878.56,1100.33 1879.10,1101.04 1878.87,1101.90 1877.84,1102.92"/>
    </edge>
    <edge id=":10917526134_0" function="internal">
        <lane id=":10917526134_0_0" index="0" disallow="tram rail_urban rail rail_electric rail_fast ship" speed="8.33" length="9.51" shape="1821.23,1137.72 1811.97,1139.87"/>
    </edge>
    <edge id=":10917526134_1" function="internal">
        <lane id=":10917526134_1_0" index="0" allow="pedestrian delivery bicycle" speed="5.91" length="8.32" shape="1821.23,1137.72 1818.37,1138.13 1816.31,1137.85 1815.03,1136.87 1814.56,1135.20"/>
    </edge>
    <edge id=":10917526134_2" function="internal">
        <lane id=":10917526134_2_0" index="0" allow="pedestrian delivery bicycle" speed="6.66" length="8.15" shape="1817.75,1135.07 1817.44,1136.66 1816.37,1137.98 1814.55,1139.06 1811.97,1139.87"/>
    </edge>
    <edge id=":10917526134_3" function="internal">
        <lane id=":10917526134_3_0" index="0" allow="pedestrian delivery bicycle" speed="3.65" length="4.67" shape="1817.75,1135.07 1817.00,1136.30 1816.22,1136.73 1815.40,1136.36 1814.56,1135.20"/>
    </edge>
    <edge id=":10920570265_0" function="internal">
        <lane id=":10920570265_0_0" index="0" allow="pedestrian delivery bicycle" speed="3.65" length="4.67" shape="1828.81,1314.43 1830.16,1314.92 1830.74,1315.60 1830.54,1316.48 1829.56,1317.54"/>
    </edge>
    <edge id=":10920570266_0" function="internal">
        <lane id=":10920570266_0_0" index="0" allow="pedestrian delivery bicycle" speed="5.23" length="5.23" shape="1785.13,1328.30 1783.73,1328.83 1782.81,1329.63 1782.37,1330.71 1782.40,1332.05"/>
    </edge>
    <edge id=":10920570266_1" function="internal">
        <lane id=":10920570266_1_0" index="0" allow="pedestrian delivery bicycle" speed="3.65" length="4.67" shape="1785.13,1328.30 1783.78,1327.80 1783.20,1327.12 1783.40,1326.25 1784.38,1325.19"/>
    </edge>
    <edge id=":10920570266_2" function="internal">
        <lane id=":10920570266_2_0" index="0" allow="pedestrian delivery bicycle" speed="4.98" length="5.07" shape="1780.70,1322.80 1781.14,1324.13 1781.91,1324.97 1782.98,1325.32 1784.38,1325.19"/>
    </edge>
    <edge id=":10920570266_3" function="internal">
        <lane id=":10920570266_3_0" index="0" disallow="tram rail_urban rail rail_electric rail_fast ship" speed="8.33" length="9.41" shape="1780.70,1322.80 1782.40,1332.05"/>
        <lane id=":10920570266_3_1" index="1" disallow="tram rail_urban rail rail_electric rail_fast ship" speed="8.33" length="9.41" shape="1777.55,1323.38 1779.26,1332.63"/>
    </edge>
    <edge id=":11050178414_0" function="internal">
        <lane id=":11050178414_0_0" index="0" disallow="tram rail_urban rail rail_electric rail_fast ship" speed="8.33" length="9.42" shape="2027.22,1484.70 2027.09,1494.11"/>
        <lane id=":11050178414_0_1" index="1" disallow="tram rail_urban rail rail_electric rail_fast ship" speed="8.33" length="9.42" shape="2024.02,1484.65 2023.89,1494.07"/>
        <lane id=":11050178414_0_2" index="2" disallow="tram rail_urban rail rail_electric rail_fast ship" speed="8.33" length="9.42" shape="2020.82,1484.61 2020.69,1494.02"/>
    </edge>
    <edge id=":11050178414_3" function="internal">
        <lane id=":11050178414_3_0" index="0" allow="pedestrian delivery bicycle" speed="6.01" length="7.95" shape="2020.82,1484.61 2020.57,1487.40 2019.90,1489.35 2018.81,1490.47 2017.31,1490.74"/>
    </edge>
    <edge id=":11050178414_4" function="internal">
        <lane id=":11050178414_4_0" index="0" allow="pedestrian delivery bicycle" speed="6.95" length="10.19" shape="2017.57,1487.56 2020.37,1488.16 2022.35,1489.45 2023.52,1491.42 2023.89,1494.07"/>
        <lane id=":11050178414_4_1" index="1" allow="pedestrian delivery bicycle" speed="6.27" length="7.87" shape="2017.57,1487.56 2018.97,1488.06 2019.95,1489.31 2020.53,1491.29 2020.69,1494.02"/>
    </edge>
    <edge id=":11050178414_6" function="internal">
        <lane id=":11050178414_6_0" index="0" allow="pedestrian delivery bicycle" speed="3.65" length="4.67" shape="2017.57,1487.56 2018.70,1488.45 2019.04,1489.28 2018.57,1490.05 2017.31,1490.74"/>
    </edge>
    <edge id=":11050340832_0" function="internal">
        <lane id=":11050340832_0_0" index="0" allow="pedestrian delivery bicycle" speed="5.07" length="5.04" shape="1978.07,1514.54 1977.47,1515.79 1977.41,1516.94 1977.88,1517.97 1978.89,1518.89"/>
    </edge>
    <edge id=":11050340832_1" function="internal">
        <lane id=":11050340832_1_0" index="0" allow="pedestrian delivery bicycle" speed="3.65" length="4.67" shape="1978.07,1514.54 1976.74,1515.10 1975.86,1514.99 1975.41,1514.21 1975.41,1512.77"/>
    </edge>
    <edge id=":11050340832_2" function="internal">
        <lane id=":11050340832_2_0" index="0" allow="pedestrian delivery bicycle" speed="5.03" length="5.01" shape="1971.11,1513.62 1972.34,1514.22 1973.47,1514.28 1974.49,1513.79 1975.41,1512.77"/>
    </edge>
    <edge id=":11050340832_3" function="internal">
        <lane id=":11050340832_3_0" index="0" disallow="tram rail_urban rail rail_electric rail_fast ship" speed="13.89" length="9.40" shape="1971.11,1513.62 1978.89,1518.89"/>
        <lane id=":11050340832_3_1" index="1" disallow="tram rail_urban rail rail_electric rail_fast ship" speed="13.89" length="9.40" shape="1969.31,1516.27 1977.10,1521.54"/>
    </edge>
    <edge id=":11623611991_0" function="internal">
        <lane id=":11623611991_0_0" index="0" allow="pedestrian delivery bicycle" speed="3.65" length="4.67" shape="1813.15,1173.42 1814.50,1173.94 1815.06,1174.64 1814.84,1175.50 1813.85,1176.54"/>
    </edge>
    <edge id=":11623611997_0" function="internal">
        <lane id=":11623611997_0_0" index="0" allow="pedestrian delivery bicycle" speed="5.23" length="5.23" shape="1765.51,1213.76 1764.10,1214.28 1763.17,1215.07 1762.72,1216.14 1762.74,1217.49"/>
    </edge>
    <edge id=":11623611997_1" function="internal">
        <lane id=":11623611997_1_0" index="0" allow="pedestrian delivery bicycle" speed="3.65" length="4.67" shape="1765.51,1213.76 1764.16,1213.25 1763.59,1212.56 1763.80,1211.69 1764.79,1210.64"/>
    </edge>
    <edge id=":11623611997_2" function="internal">
        <lane id=":11623611997_2_0" index="0" allow="pedestrian delivery bicycle" speed="4.98" length="5.07" shape="1761.13,1208.22 1761.57,1209.55 1762.32,1210.40 1763.39,1210.76 1764.79,1210.64"/>
    </edge>
    <edge id=":11623611997_3" function="internal">
        <lane id=":11623611997_3_0" index="0" disallow="tram rail_urban rail rail_electric rail_fast ship" speed="8.33" length="9.41" shape="1761.13,1208.22 1762.74,1217.49"/>
        <lane id=":11623611997_3_1" index="1" disallow="tram rail_urban rail rail_electric rail_fast ship" speed="8.33" length="9.41" shape="1757.98,1208.76 1759.59,1218.03"/>
    </edge>
    <edge id=":12013459186_0" function="internal">
        <lane id=":12013459186_0_0" index="0" disallow="tram rail_urban rail rail_electric rail_fast ship" speed="8.33" length="5.00" shape="1743.19,1109.23 1744.18,1114.13"/>
        <lane id=":12013459186_0_1" index="1" disallow="tram rail_urban rail rail_electric rail_fast ship" speed="8.33" length="5.00" shape="1740.05,1109.86 1741.04,1114.77"/>
    </edge>
    <edge id=":2496228905_0" function="internal">
        <lane id=":2496228905_0_0" index="0" disallow="tram rail_urban rail rail_electric rail_fast ship" speed="8.33" length="0.28" shape="944.80,1112.65 944.55,1112.72"/>
        <lane id=":2496228905_0_1" index="1" disallow="tram rail_urban rail rail_electric rail_fast ship" speed="8.33" length="0.28" shape="943.99,1109.56 943.69,1109.64"/>
    </edge>
    <edge id=":2496228911_0" function="internal">
        <lane id=":2496228911_0_0" index="0" disallow="tram rail_urban rail rail_electric rail_fast ship" speed="8.33" length="0.29" shape="1044.54,1086.61 1044.28,1086.68"/>
        <lane id=":2496228911_0_1" index="1" disallow="tram rail_urban rail rail_electric rail_fast ship" speed="8.33" length="0.29" shape="1043.77,1083.51 1043.47,1083.58"/>
    </edge>
    <edge id=":2496347198_0" function="internal">
        <lane id=":2496347198_0_0" index="0" disallow="tram rail_urban rail rail_electric rail_fast ship" speed="8.33" length="0.29" shape="1192.42,1278.36 1192.13,1278.43"/>
    </edge>
    <edge id=":2895686593_0" function="internal">
        <lane id=":2895686593_0_0" index="0" disallow="tram rail_urban rail rail_electric rail_fast ship" speed="6.71" length="8.54" shape="1854.52,1713.81 1856.55,1713.03 1857.96,1711.71 1858.74,1709.85 1858.90,1707.44"/>
    </edge>
    <edge id=":2895686593_1" function="internal">
        <lane id=":2895686593_1_0" index="0" disallow="tram rail_urban rail rail_electric rail_fast ship" speed="8.33" length="10.21" shape="1854.52,1713.81 1864.41,1711.50"/>
        <lane id=":2895686593_1_1" index="1" disallow="tram rail_urban rail rail_electric rail_fast ship" speed="8.33" length="10.21" shape="1855.19,1716.93 1865.18,1714.60"/>
    </edge>
    <edge id=":2895686594_0" function="internal">
        <lane id=":2895686594_0_0" index="0" disallow="tram rail_urban rail rail_electric rail_fast ship" speed="6.27" length="9.04" shape="1853.01,1607.51 1852.53,1605.04 1851.37,1603.40 1849.54,1602.61 1847.02,1602.65"/>
    </edge>
    <edge id=":2895686594_1" function="internal">
        <lane id=":2895686594_1_0" index="0" disallow="tram rail_urban rail rail_electric rail_fast ship" speed="8.33" length="11.02" shape="1857.94,1600.55 1847.02,1602.65"/>
        <lane id=":2895686594_1_1" index="1" disallow="tram rail_urban rail rail_electric rail_fast ship" speed="8.33" length="11.02" shape="1857.22,1597.43 1846.50,1599.49"/>
    </edge>
    <edge id=":3041765055_0" function="internal">
        <lane id=":3041765055_0_0" index="0" disallow="tram rail_urban rail rail_electric rail_fast ship" speed="5.85" length="4.95" shape="2012.68,753.92 2014.07,753.60 2015.16,753.03 2015.94,752.21 2016.42,751.14"/>
    </edge>
    <edge id=":3041765055_1" function="internal">
        <lane id=":3041765055_1_0" index="0" disallow="tram rail_urban rail rail_electric rail_fast ship" speed="8.33" length="10.39" shape="2013.09,757.09 2016.17,756.61 2018.30,756.23 2020.41,756.07 2023.40,756.25"/>
    </edge>
    <edge id=":3058155043_0" function="internal">
        <lane id=":3058155043_0_0" index="0" allow="tram" speed="13.89" length="0.30" shape="3964.58,2819.63 3964.34,2819.45"/>
    </edge>
    <edge id=":3073574611_0" function="internal">
        <lane id=":3073574611_0_0" index="0" disallow="tram rail_urban rail rail_electric rail_fast ship" speed="14.15" length="10.38" shape="1902.85,1443.07 1902.92,1446.13 1903.09,1448.31 1903.74,1450.33 1905.27,1452.92"/>
    </edge>
    <edge id=":3073574611_1" function="internal">
        <lane id=":3073574611_1_0" index="0" disallow="tram rail_urban rail rail_electric rail_fast ship" speed="3.65" length="1.44" shape="1902.85,1443.07 1902.10,1444.30"/>
    </edge>
    <edge id=":3073574611_5" function="internal">
        <lane id=":3073574611_5_0" index="0" disallow="tram rail_urban rail rail_electric rail_fast ship" speed="3.65" length="3.23" shape="1902.10,1444.30 1901.32,1444.73 1900.50,1444.36 1899.66,1443.19"/>
    </edge>
    <edge id=":3073574611_2" function="internal">
        <lane id=":3073574611_2_0" index="0" disallow="tram rail_urban rail rail_electric rail_fast ship" speed="11.11" length="13.20" shape="1898.04,1456.10 1898.06,1452.30 1897.55,1449.71 1896.89,1447.12 1896.46,1443.31"/>
        <lane id=":3073574611_2_1" index="1" disallow="tram rail_urban rail rail_electric rail_fast ship" speed="11.11" length="13.20" shape="1901.22,1456.48 1901.26,1452.53 1900.75,1449.84 1900.09,1447.15 1899.66,1443.19"/>
    </edge>
    <edge id=":3073574611_4" function="internal">
        <lane id=":3073574611_4_0" index="0" disallow="tram rail_urban rail rail_electric rail_fast ship" speed="5.13" length="4.39" shape="1901.22,1456.48 1901.75,1453.08 1902.17,1452.23"/>
    </edge>
    <edge id=":3073574611_6" function="internal">
        <lane id=":3073574611_6_0" index="0" disallow="tram rail_urban rail rail_electric rail_fast ship" speed="5.13" length="4.37" shape="1902.17,1452.23 1902.60,1451.35 1903.78,1451.30 1905.27,1452.92"/>
    </edge>
    <edge id=":3098142036_0" function="internal">
        <lane id=":3098142036_0_0" index="0" disallow="tram rail_urban rail rail_electric rail_fast ship" speed="7.05" length="9.65" shape="1923.94,1585.84 1921.47,1586.72 1919.76,1588.17 1918.81,1590.17 1918.63,1592.74"/>
    </edge>
    <edge id=":3098142036_1" function="internal">
        <lane id=":3098142036_1_0" index="0" disallow="tram rail_urban rail rail_electric rail_fast ship" speed="27.78" length="11.01" shape="1923.94,1585.84 1913.13,1588.06"/>
        <lane id=":3098142036_1_1" index="1" disallow="tram rail_urban rail rail_electric rail_fast ship" speed="27.78" length="11.01" shape="1923.28,1582.71 1912.52,1584.92"/>
    </edge>
    <edge id=":3098142036_3" function="internal">
        <lane id=":3098142036_3_0" index="0" disallow="tram rail_urban rail rail_electric rail_fast ship" speed="13.89" length="14.33" shape="1917.76,1578.47 1918.63,1592.74"/>
        <lane id=":3098142036_3_1" index="1" disallow="tram rail_urban rail rail_electric rail_fast ship" speed="13.89" length="14.33" shape="1914.56,1578.63 1915.44,1592.96"/>
    </edge>
    <edge id=":3098142036_5" function="internal">
        <lane id=":3098142036_5_0" index="0" disallow="tram rail_urban rail rail_electric rail_fast ship" speed="6.14" length="7.08" shape="1914.56,1578.63 1914.55,1581.21 1914.21,1583.12 1913.53,1584.35 1912.52,1584.92"/>
    </edge>
    <edge id=":3098142045_0" function="internal">
        <lane id=":3098142045_0_0" index="0" disallow="tram rail_urban rail rail_electric rail_fast ship" speed="13.89" length="14.37" shape="1924.72,1693.51 1925.60,1707.88"/>
        <lane id=":3098142045_0_1" index="1" disallow="tram rail_urban rail rail_electric rail_fast ship" speed="13.89" length="14.37" shape="1921.53,1693.73 1922.40,1708.05"/>
    </edge>
    <edge id=":3098142045_2" function="internal">
        <lane id=":3098142045_2_0" index="0" disallow="tram rail_urban rail rail_electric rail_fast ship" speed="7.77" length="13.22" shape="1917.53,1699.50 1920.89,1699.91 1923.35,1701.44 1924.92,1704.10 1925.60,1707.88"/>
        <lane id=":3098142045_2_1" index="1" disallow="tram rail_urban rail rail_electric rail_fast ship" speed="6.22" length="8.10" shape="1917.66,1702.70 1919.63,1702.96 1921.07,1703.94 1922.00,1705.64 1922.40,1708.05"/>
    </edge>
    <edge id=":3106256535_0" function="internal">
        <lane id=":3106256535_0_0" index="0" disallow="tram rail_urban rail rail_electric rail_fast ship" speed="6.98" length="10.49" shape="2024.13,632.04 2023.48,629.59 2021.98,627.92 2019.64,627.02 2016.45,626.90"/>
    </edge>
    <edge id=":3106256535_1" function="internal">
        <lane id=":3106256535_1_0" index="0" disallow="tram rail_urban rail rail_electric rail_fast ship" speed="12.50" length="14.65" shape="2024.13,632.04 2023.62,628.72 2022.81,625.73 2021.96,622.32 2021.27,617.71"/>
        <lane id=":3106256535_1_1" index="1" disallow="tram rail_urban rail rail_electric rail_fast ship" speed="12.50" length="14.65" shape="2024.13,632.04 2024.11,628.68 2024.41,625.59 2024.65,622.06 2024.46,617.40"/>
    </edge>
    <edge id=":3106256535_3" function="internal">
        <lane id=":3106256535_3_0" index="0" disallow="tram rail_urban rail rail_electric rail_fast ship" speed="8.33" length="14.15" shape="2030.48,626.30 2016.45,626.90"/>
        <lane id=":3106256535_3_1" index="1" disallow="tram rail_urban rail rail_electric rail_fast ship" speed="8.33" length="14.15" shape="2030.45,623.10 2016.21,623.71"/>
    </edge>
    <edge id=":3106256535_5" function="internal">
        <lane id=":3106256535_5_0" index="0" disallow="tram rail_urban rail rail_electric rail_fast ship" speed="6.78" length="9.26" shape="2030.45,623.10 2028.04,622.76 2026.23,621.70 2025.04,619.92 2024.46,617.40"/>
    </edge>
    <edge id=":3170817405_0" function="internal">
        <lane id=":3170817405_0_0" index="0" disallow="tram rail_urban rail rail_electric rail_fast ship" speed="13.89" length="15.14" shape="1877.01,1023.26 1876.14,1008.02"/>
        <lane id=":3170817405_0_1" index="1" disallow="tram rail_urban rail rail_electric rail_fast ship" speed="13.89" length="15.14" shape="1880.19,1022.95 1879.34,1007.96"/>
    </edge>
    <edge id=":3170817405_2" function="internal">
        <lane id=":3170817405_2_0" index="0" disallow="tram rail_urban rail rail_electric rail_fast ship" speed="6.38" length="9.04" shape="1885.74,1007.84 1886.14,1010.30 1887.24,1012.00 1889.04,1012.92 1891.53,1013.08"/>
        <lane id=":3170817405_2_1" index="1" disallow="tram rail_urban rail rail_electric rail_fast ship" speed="7.89" length="14.43" shape="1882.54,1007.90 1883.18,1011.84 1884.94,1014.54 1887.81,1016.02 1891.79,1016.27"/>
    </edge>
    <edge id=":3170817405_4" function="internal">
        <lane id=":3170817405_4_0" index="0" disallow="tram rail_urban rail rail_electric rail_fast ship" speed="13.89" length="14.94" shape="1882.54,1007.90 1883.13,1012.27 1884.33,1015.13 1885.65,1017.99 1886.56,1022.33"/>
        <lane id=":3170817405_4_1" index="1" disallow="tram rail_urban rail rail_electric rail_fast ship" speed="13.89" length="14.94" shape="1882.54,1007.90 1883.38,1022.64"/>
    </edge>
    <edge id=":3420898172_0" function="internal">
        <lane id=":3420898172_0_0" index="0" disallow="tram rail_urban rail rail_electric rail_fast ship" speed="7.34" length="8.99" shape="2033.40,1447.62 2030.83,1448.74 2029.00,1450.12 2027.92,1451.76 2027.58,1453.66"/>
        <lane id=":3420898172_0_1" index="1" disallow="tram rail_urban rail rail_electric rail_fast ship" speed="8.69" length="12.93" shape="2032.26,1444.63 2028.78,1446.20 2026.30,1448.24 2024.84,1450.75 2024.38,1453.71"/>
    </edge>
    <edge id=":3420898172_2" function="internal">
        <lane id=":3420898172_2_0" index="0" disallow="tram rail_urban rail rail_electric rail_fast ship" speed="8.33" length="9.50" shape="2027.43,1444.17 2027.58,1453.66"/>
        <lane id=":3420898172_2_1" index="1" disallow="tram rail_urban rail rail_electric rail_fast ship" speed="8.33" length="9.50" shape="2024.23,1444.22 2024.38,1453.71"/>
        <lane id=":3420898172_2_2" index="2" disallow="tram rail_urban rail rail_electric rail_fast ship" speed="8.33" length="9.50" shape="2021.03,1444.26 2021.18,1453.77"/>
    </edge>
    <edge id=":3420898173_0" function="internal">
        <lane id=":3420898173_0_0" index="0" disallow="tram rail_urban rail rail_electric rail_fast ship" speed="9.01" length="10.59" shape="2026.40,1541.56 2026.44,1545.69 2026.70,1548.78 2027.17,1550.84 2027.86,1551.87"/>
    </edge>
    <edge id=":3420898173_1" function="internal">
        <lane id=":3420898173_1_0" index="0" disallow="tram rail_urban rail rail_electric rail_fast ship" speed="8.33" length="14.03" shape="2026.40,1541.56 2026.40,1546.02 2026.33,1549.10 2025.83,1552.10 2024.57,1556.35"/>
        <lane id=":3420898173_1_1" index="1" disallow="tram rail_urban rail rail_electric rail_fast ship" speed="8.33" length="14.03" shape="2023.20,1541.51 2023.21,1545.68 2023.15,1548.56 2022.71,1551.37 2021.53,1555.34"/>
        <lane id=":3420898173_1_2" index="2" disallow="tram rail_urban rail rail_electric rail_fast ship" speed="8.33" length="14.03" shape="2020.00,1541.46 2020.01,1545.34 2019.98,1548.02 2019.58,1550.63 2018.49,1554.33"/>
    </edge>
    <edge id=":3420898173_4" function="internal">
        <lane id=":3420898173_4_0" index="0" disallow="tram rail_urban rail rail_electric rail_fast ship" speed="8.33" length="16.20" shape="2020.00,1541.46 2019.67,1547.26 2018.88,1551.73 2017.61,1554.85 2015.88,1556.63"/>
    </edge>
    <edge id=":3420898173_5" function="internal">
        <lane id=":3420898173_5_0" index="0" disallow="tram rail_urban rail rail_electric rail_fast ship" speed="13.89" length="14.74" shape="2015.62,1543.75 2027.86,1551.87"/>
        <lane id=":3420898173_5_1" index="1" disallow="tram rail_urban rail rail_electric rail_fast ship" speed="13.89" length="14.74" shape="2013.83,1546.40 2026.15,1554.57"/>
    </edge>
    <edge id=":3420898173_7" function="internal">
        <lane id=":3420898173_7_0" index="0" disallow="tram rail_urban rail rail_electric rail_fast ship" speed="8.35" length="12.31" shape="2013.83,1546.40 2017.58,1549.17 2020.11,1551.58 2021.43,1553.64 2021.53,1555.34"/>
        <lane id=":3420898173_7_1" index="1" disallow="tram rail_urban rail rail_electric rail_fast ship" speed="7.53" length="9.86" shape="2013.83,1546.40 2016.35,1548.41 2017.98,1550.40 2018.69,1552.37 2018.49,1554.33"/>
    </edge>
    <edge id=":3420898173_9" function="internal">
        <lane id=":3420898173_9_0" index="0" disallow="tram rail_urban rail rail_electric rail_fast ship" speed="5.92" length="9.84" shape="2013.83,1546.40 2016.18,1548.44 2017.05,1550.36 2016.42,1552.17 2014.30,1553.85"/>
    </edge>
    <edge id=":3420898174_0" function="internal">
        <lane id=":3420898174_0_0" index="0" disallow="tram rail_urban rail rail_electric rail_fast ship" speed="13.89" length="8.87" shape="2012.50,1562.12 2005.15,1557.18"/>
        <lane id=":3420898174_0_1" index="1" disallow="tram rail_urban rail rail_electric rail_fast ship" speed="13.89" length="8.87" shape="2014.30,1559.48 2006.92,1554.52"/>
    </edge>
    <edge id=":3420898174_2" function="internal">