<?xml version="1.0" encoding="UTF-8"?>

<!-- generated on 2024-07-04 18:58:36 by Eclipse SUMO netedit Version v1_19_0+1520-dc4640af2ac
-->

<additional xmlns:xsi="http://www.w3.org/2001/XMLSchema-instance" xsi:noNamespaceSchemaLocation="http://sumo.dlr.de/xsd/additional_file.xsd">
    <!-- Detectors -->
    <entryExitDetector id="RA1" pos="1898.73,1130.93" period="300.00" file="RA1.xml">
        <detEntry lane="48909342#5_1" pos="90.00"/>
        <detEntry lane="48909342#5_0" pos="90.00"/>
        <detExit lane="-48202921_1" pos="10.00"/>
        <detExit lane="-48202921_0" pos="10.00"/>
    </entryExitDetector>
    <entryExitDetector id="RA2" pos="1875.01,1129.82" period="300.00" file="RA2.xml">
        <detExit lane="894151134#0_0" pos="12.00"/>
        <detEntry lane="48909342#5_1" pos="90.00"/>
        <detEntry lane="48909342#5_0" pos="90.00"/>
    </entryExitDetector>
    <entryExitDetector id="RA3" pos="1898.05,1113.41" period="300.00" file="RA3.xml">
        <detEntry lane="48909342#5_1" pos="90.00"/>
        <detEntry lane="48909342#5_0" pos="90.00"/>
        <detExit lane="389741417#0_0" pos="5.00"/>
        <detExit lane="389741417#0_1" pos="5.00"/>
    </entryExitDetector>
</additional>
