<?xml version="1.0" encoding="UTF-8"?>

<!-- generated on 2024-07-03 22:55:13 by Eclipse SUMO polyconvert Version v1_19_0+1520-dc4640af2ac
<configuration xmlns:xsi="http://www.w3.org/2001/XMLSchema-instance" xsi:noNamespaceSchemaLocation="http://sumo.dlr.de/xsd/polyconvertConfiguration.xsd">

    <input>
        <net-file value="huaynacapac.net.xml"/>
        <osm-files value="map.osm"/>
    </input>

    <output>
        <output-file value="huaynacapac.poly.xml"/>
    </output>

    <report>
        <verbose value="true"/>
    </report>

</configuration>
-->

<additional xmlns:xsi="http://www.w3.org/2001/XMLSchema-instance" xsi:noNamespaceSchemaLocation="http://sumo.dlr.de/xsd/additional_file.xsd">
    <location netOffset="-720791.05,321713.89" convBoundary="-0.00,-151.46,4319.34,2987.13" origBoundary="-79.013689,-2.910201,-78.974867,-2.881791" projParameter="+proj=utm +zone=17 +ellps=WGS84 +datum=WGS84 +units=m +no_defs"/>

    <poly id="1081346188" type="amenity" color="237,199,199" fill="1" layer="-1.00" shape="1755.832493,1147.731051 1786.635046,1141.228568 1787.072369,1143.284971 1797.521445,1141.076599 1797.117815,1139.208158 1804.710066,1137.602082 1799.137411,1111.631788 1790.855967,1113.382865 1791.921103,1118.313780 1751.369817,1126.890679 1755.832493,1147.731051"/>
    <poly id="1081346188#1" type="building" color="255,230,230" fill="1" layer="-1.00" shape="1755.832493,1147.731051 1786.635046,1141.228568 1787.072369,1143.284971 1797.521445,1141.076599 1797.117815,1139.208158 1804.710066,1137.602082 1799.137411,1111.631788 1790.855967,1113.382865 1791.921103,1118.313780 1751.369817,1126.890679 1755.832493,1147.731051"/>
    <poly id="1081346189" type="amenity" color="237,199,199" fill="1" layer="-1.00" shape="1751.369817,1126.890679 1744.154940,1090.349853 1791.885624,1079.382334 1794.396291,1090.548583 1799.137411,1111.631788 1790.855967,1113.382865 1791.921103,1118.313780 1751.369817,1126.890679"/>
    <poly id="1081346189#1" type="building" color="255,230,230" fill="1" layer="-1.00" shape="1751.369817,1126.890679 1744.154940,1090.349853 1791.885624,1079.382334 1794.396291,1090.548583 1799.137411,1111.631788 1790.855967,1113.382865 1791.921103,1118.313780 1751.369817,1126.890679"/>
    <poly id="1081346190" type="building" color="255,230,230" fill="1" layer="-1.00" shape="1744.154940,1090.349853 1734.521779,1044.578135 1848.882260,1013.440808 1854.750231,1036.612379 1874.252082,1034.940983 1875.620156,1072.819381 1794.396291,1090.548583 1791.885624,1079.382334 1744.154940,1090.349853"/>
    <poly id="1154809883" type="parking" color="184,184,179" fill="1" layer="-1.00" shape="1977.944502,1624.128020 1990.959801,1620.444131 1981.732413,1584.050591 1970.429611,1587.720395 1977.944502,1624.128020"/>
    <poly id="1177252692" type="building" color="255,230,230" fill="1" layer="-1.00" shape="2062.716124,1568.622398 2097.533553,1593.744704 2093.857171,1564.795848 2062.716124,1568.622398"/>
    <poly id="1177252695" type="building" color="255,230,230" fill="1" layer="-1.00" shape="2054.674907,1184.397566 2063.246430,1183.176844 2061.788652,1163.746822 2052.116606,1165.179634 2054.674907,1184.397566"/>
    <poly id="1188758455" type="building" color="255,230,230" fill="1" layer="-1.00" shape="1890.825791,742.305808 1891.061849,731.178935 1913.925967,731.779925 1913.945439,742.773626 1906.917341,742.686533 1890.825791,742.305808"/>
    <poly id="1188758456" type="parking" color="184,184,179" fill="1" layer="-1.00" shape="1890.825791,742.305808 1887.345073,742.245612 1887.381028,731.152274 1891.061849,731.178935 1890.825791,742.305808"/>
    <poly id="1189754512" type="parking" color="184,184,179" fill="1" layer="-1.00" shape="1750.892791,411.215489 1752.143590,414.232677 1761.546464,411.550536 1770.960478,408.879435 1766.609521,394.641752 1764.938568,392.985699 1761.199788,391.620873 1745.951355,396.348428 1747.475366,402.937539 1747.677096,403.821989 1750.892791,411.215489"/>
    <poly id="1192114529" type="building" color="255,230,230" fill="1" layer="-1.00" shape="1865.622833,1594.851278 1904.327847,1585.990141 1903.065611,1557.612171 1862.774995,1562.770983 1865.622833,1594.851278"/>
    <poly id="1193603671" type="building" color="255,230,230" fill="1" layer="-1.00" shape="1998.009193,1525.580262 2015.352183,1535.570058 2017.617707,1496.125734 1998.009193,1525.580262"/>
    <poly id="1193603672" type="building" color="255,230,230" fill="1" layer="-1.00" shape="2030.665626,1536.062814 2044.953723,1535.263348 2044.672252,1527.013010 2031.439656,1527.290785 2030.665626,1536.062814"/>
    <poly id="1193603673" type="building" color="255,230,230" fill="1" layer="-1.00" shape="2031.439656,1527.290785 2032.451956,1514.912742 2044.649453,1514.116971 2044.672252,1527.013010 2031.439656,1527.290785"/>
    <poly id="1194348615" type="building" color="255,230,230" fill="1" layer="-1.00" shape="1706.111717,1379.262212 1700.063579,1354.785872 1723.952192,1349.855123 1746.006896,1345.447432 1749.316825,1368.424441 1706.111717,1379.262212"/>
    <poly id="1194348619" type="building" color="255,230,230" fill="1" layer="-1.00" shape="1790.921998,1358.363684 1789.681660,1348.677239 1803.876868,1345.676994 1806.618098,1355.172766 1790.921998,1358.363684"/>
    <poly id="1194348620" type="building" color="255,230,230" fill="1" layer="-1.00" shape="1789.681660,1348.677239 1786.776424,1334.470160 1802.793227,1330.272206 1806.599962,1344.909036 1803.876868,1345.676994 1789.681660,1348.677239"/>
    <poly id="1194348622" type="building" color="255,230,230" fill="1" layer="-1.00" shape="1750.555268,1547.064739 1748.201478,1523.964378 1763.654186,1521.470696 1765.297224,1545.103197 1750.555268,1547.064739"/>
    <poly id="1194348623" type="building" color="255,230,230" fill="1" layer="-1.00" shape="1765.297224,1545.103197 1765.479814,1547.746235 1777.376857,1546.840423 1777.186787,1539.961385 1791.559902,1536.938722 1790.995920,1519.829763 1763.654186,1521.470696 1765.297224,1545.103197"/>
    <poly id="1194348624" type="building" color="255,230,230" fill="1" layer="-1.00" shape="1772.329909,1503.681819 1770.168584,1488.820880 1775.205501,1488.513363 1774.261770,1470.464970 1789.223386,1466.954618 1791.917906,1494.080253 1788.769753,1499.737517 1772.329909,1503.681819"/>
    <poly id="1194348625" type="building" color="255,230,230" fill="1" layer="-1.00" shape="1777.376857,1546.840423 1780.217555,1555.993158 1793.347301,1554.156121 1791.559902,1536.938722 1777.186787,1539.961385 1777.376857,1546.840423"/>
    <poly id="1194355355" type="building" color="255,230,230" fill="1" layer="-1.00" shape="1735.820784,1509.165724 1733.003031,1487.813678 1740.830000,1486.870811 1744.981728,1507.966121 1735.820784,1509.165724"/>
    <poly id="1194355356" type="building" color="255,230,230" fill="1" layer="-1.00" shape="1869.563164,1483.668278 1859.761349,1487.191643 1857.290608,1441.971296 1867.383537,1439.575543 1868.324295,1455.931757 1869.563164,1483.668278"/>
    <poly id="1194355357" type="building" color="255,230,230" fill="1" layer="-1.00" shape="1859.761349,1487.191643 1845.297478,1489.196951 1840.975728,1447.408505 1857.290608,1441.971296 1859.761349,1487.191643"/>
    <poly id="1194355358" type="building" color="255,230,230" fill="1" layer="-1.00" shape="1816.640567,1495.441220 1835.883560,1491.978603 1833.997847,1475.767843 1820.588990,1476.974958 1821.268313,1483.831013 1816.223713,1486.085121 1816.640567,1495.441220"/>
    <poly id="1194355359" type="building" color="255,230,230" fill="1" layer="-1.00" shape="1879.371952,1496.679737 1867.356572,1499.842030 1868.041542,1516.187635 1880.415466,1514.551002 1879.371952,1496.679737"/>
    <poly id="1194355360" type="building" color="255,230,230" fill="1" layer="-1.00" shape="1880.415466,1514.551002 1880.010894,1524.738062 1897.267798,1523.778527 1897.616651,1513.525204 1880.415466,1514.551002"/>
    <poly id="1194355361" type="building" color="255,230,230" fill="1" layer="-1.00" shape="1897.267798,1523.778527 1897.187999,1535.259045 1880.097447,1535.963903 1880.010894,1524.738062 1897.267798,1523.778527"/>
    <poly id="1220520729" type="parking" color="184,184,179" fill="1" layer="-1.00" shape="2060.036238,1084.670179 2087.691469,1077.985151 2084.603700,1042.366018 2056.287963,1046.552637 2060.036238,1084.670179"/>
    <poly id="1220520748" type="building" color="255,230,230" fill="1" layer="-1.00" shape="1728.629123,1164.690004 1747.449154,1161.040092 1747.565510,1151.373372 1740.402699,1144.285459 1726.652093,1147.152205 1728.629123,1164.690004"/>
    <poly id="1220520752" type="building" color="255,230,230" fill="1" layer="-1.00" shape="1675.440684,1359.518830 1673.384268,1347.389553 1742.813517,1331.793869 1746.006896,1345.447432 1675.440684,1359.518830"/>
    <poly id="1221432041" type="building" color="255,230,230" fill="1" layer="-1.00" shape="1880.834609,802.125429 1907.893728,797.963160 1907.650119,792.267642 1906.896657,774.959928 1881.580702,777.592820 1880.834609,802.125429"/>
    <poly id="1221432042" type="building" color="255,230,230" fill="1" layer="-1.00" shape="1890.831503,971.658972 1910.449796,966.669328 1931.112933,961.423449 1930.280311,943.363786 1890.180686,955.788889 1890.831503,971.658972"/>
    <poly id="1221432043" type="building" color="255,230,230" fill="1" layer="-1.00" shape="1917.246174,1005.467175 1896.211269,1008.003981 1892.167413,1003.918902 1891.505341,987.971418 1890.831503,971.658972 1910.449796,966.669328 1913.749441,983.795576 1917.246174,1005.467175"/>
    <poly id="1221432044" type="building" color="255,230,230" fill="1" layer="-1.00" shape="1763.417254,1003.527302 1766.756954,1018.164950 1791.022411,1012.569871 1785.763698,969.201508 1758.813915,972.323881 1763.417254,1003.527302"/>
    <poly id="1221432045" type="building" color="255,230,230" fill="1" layer="-1.00" shape="1733.021340,1026.154687 1752.729337,1021.585203 1749.800419,1006.570787 1746.198092,988.051515 1737.183002,989.958732 1725.655700,992.401275 1733.021340,1026.154687"/>
    <poly id="1221432046" type="building" color="255,230,230" fill="1" layer="-1.00" shape="1752.729337,1021.585203 1764.867332,1018.621756 1763.417254,1003.527302 1749.800419,1006.570787 1752.729337,1021.585203"/>
    <poly id="1221432047" type="building" color="255,230,230" fill="1" layer="-1.00" shape="1749.800419,1006.570787 1763.417254,1003.527302 1758.813915,972.323881 1735.903640,977.075996 1737.183002,989.958732 1746.198092,988.051515 1749.800419,1006.570787"/>
    <poly id="1221432048" type="building" color="255,230,230" fill="1" layer="-1.00" shape="1827.290491,1254.456242 1840.530116,1251.889018 1835.363798,1235.606638 1822.913375,1237.984446 1827.290491,1254.456242"/>
    <poly id="1221432049" type="parking" color="184,184,179" fill="1" layer="-1.00" shape="1837.429900,1290.947677 1861.727162,1284.434574 1854.907794,1232.596921 1835.363798,1235.606638 1840.530116,1251.889018 1827.290491,1254.456242 1837.429900,1290.947677"/>
    <poly id="1237918696" type="building" color="255,230,230" fill="1" layer="-1.00" shape="1891.061849,731.178935 1891.565566,714.211858 1912.338686,714.584287 1913.925967,731.779925 1891.061849,731.178935"/>
    <poly id="1245413231" type="amenity" color="237,199,199" fill="1" layer="-1.00" shape="1740.876881,425.644526 1741.726847,428.374861 1756.409806,424.577359 1752.143590,414.232677 1750.892791,411.215489 1747.475366,402.937539 1745.951355,396.348428 1733.559786,400.506854 1740.876881,425.644526"/>
    <poly id="1245413231#1" type="building" color="255,230,230" fill="1" layer="-1.00" shape="1740.876881,425.644526 1741.726847,428.374861 1756.409806,424.577359 1752.143590,414.232677 1750.892791,411.215489 1747.475366,402.937539 1745.951355,396.348428 1733.559786,400.506854 1740.876881,425.644526"/>
    <poly id="133260284" type="shop" color="237,199,255" fill="1" layer="-1.00" shape="1878.994598,1119.663965 1804.710066,1137.602082 1799.137411,1111.631788 1794.396291,1090.548583 1875.620156,1072.819381 1878.994598,1119.663965"/>
    <poly id="136698562" type="shop" color="237,199,255" fill="1" layer="-1.00" shape="1867.717556,767.121339 1837.227499,774.209541 1812.273661,667.324770 1831.191952,662.690270 1841.445146,706.879298 1867.377879,707.176236 1867.717556,767.121339"/>
    <poly id="156193781" type="amenity" color="237,199,199" fill="1" layer="-1.00" shape="1721.667774,1523.480338 1737.913098,1522.732753 1739.022264,1546.310893 1722.776937,1547.058476 1721.667774,1523.480338"/>
    <poly id="156366580" type="building" color="255,230,230" fill="1" layer="-1.00" shape="1985.524502,1590.392386 1987.423399,1601.471250 1999.218463,1599.481710 1997.319545,1588.391786 1985.524502,1590.392386"/>
    <poly id="208781827" type="building" color="255,230,230" fill="1" layer="-1.00" shape="1806.369324,253.378184 1823.709294,255.470976 1824.226584,252.450654 1865.372202,259.389789 1864.349136,265.651616 1874.259681,267.071852 1885.261293,200.260427 1876.052043,199.248174 1874.870454,203.906570 1834.604552,197.651616 1835.368402,189.443673 1835.027677,179.158392 1832.219530,169.574273 1838.226701,164.608697 1836.170504,158.916396 1825.347911,163.647192 1826.894094,170.192024 1819.437998,173.291013 1820.196816,193.595995 1816.083997,194.510216 1813.995994,208.504934 1821.392198,209.254964 1816.175588,239.889607 1808.045399,239.107696 1806.369324,253.378184"/>
    <poly id="301154450" type="building" color="255,230,230" fill="1" layer="-1.00" shape="1890.524901,654.046787 1888.118209,714.151603 1891.565566,714.211858 1912.338686,714.584287 1944.621553,715.168586 1944.723261,716.086394 1964.808037,717.079400 1975.462082,717.602468 1982.957736,717.976290 1983.832951,703.574489 1963.136097,702.317130 1931.495239,700.061626 1930.582672,705.936155 1903.656987,703.805012 1904.836005,666.298140 1935.540545,667.305512 1935.885228,654.729571 1890.524901,654.046787"/>
    <poly id="301154585" type="residential" color="235,235,227" fill="1" layer="-3.00" shape="2027.179600,753.909622 2031.562796,754.952565 2087.295282,760.195823 2115.318417,754.085211 2119.384056,751.633720 2118.967815,730.111487 2118.287722,729.117283 2117.663268,728.145100 2116.627938,727.494390 2115.336982,726.921553 2113.212996,726.903198 2109.833317,727.384774 2058.219535,730.805357 2058.127104,728.847882 2057.792069,728.041088 2056.878571,727.113659 2055.777266,726.883348 2027.779763,728.625164 2024.289136,748.075010 2024.484019,751.370575 2027.179600,753.909622"/>
    <poly id="301178450" type="building" color="255,230,230" fill="1" layer="-1.00" shape="1959.738411,1452.949881 1956.607148,1398.960022 1983.959083,1396.799185 1986.568681,1445.049783 1959.738411,1452.949881"/>
    <poly id="301183239" type="amenity" color="237,199,199" fill="1" layer="-1.00" shape="1857.715555,783.154063 1861.607659,783.180352 1863.623262,784.791557 1865.028256,786.967907 1865.596680,800.261132 1859.247222,800.349794 1858.975130,797.408292 1852.724873,796.999074 1852.190261,783.960172 1857.715555,783.154063"/>
    <poly id="301183239#1" type="building" color="255,230,230" fill="1" layer="-1.00" shape="1857.715555,783.154063 1861.607659,783.180352 1863.623262,784.791557 1865.028256,786.967907 1865.596680,800.261132 1859.247222,800.349794 1858.975130,797.408292 1852.724873,796.999074 1852.190261,783.960172 1857.715555,783.154063"/>
    <poly id="301183240" type="amenity" color="237,199,199" fill="1" layer="-1.00" shape="1890.552421,757.480742 1887.071703,757.420545 1887.207377,758.681156 1888.010357,759.995885 1889.124231,761.044621 1890.882621,761.837834 1906.570010,760.051498 1906.917341,742.686533 1890.825791,742.305808 1890.552421,757.480742"/>
    <poly id="301183240#1" type="building" color="255,230,230" fill="1" layer="-1.00" shape="1890.552421,757.480742 1887.071703,757.420545 1887.207377,758.681156 1888.010357,759.995885 1889.124231,761.044621 1890.882621,761.837834 1906.570010,760.051498 1906.917341,742.686533 1890.825791,742.305808 1890.552421,757.480742"/>
    <poly id="303058612" type="historic" color="128,255,128" fill="1" layer="-1.00" shape="1908.073566,1496.850227 1904.632520,1494.080224 1902.224011,1490.379348 1901.093348,1486.123210 1901.341354,1481.731914 1902.935411,1477.625803 1905.731680,1474.214353 1909.452724,1471.818797 1913.743144,1470.694146 1918.169431,1470.940706 1922.297838,1472.526064 1926.050933,1475.682619 1928.493742,1479.914318 1929.336259,1484.723971 1928.466265,1489.536650 1926.005028,1493.754895 1922.229693,1496.891573 1917.606603,1498.547697 1912.691437,1498.534262 1908.073566,1496.850227"/>
    <poly id="311412264" type="parking" color="184,184,179" fill="1" layer="-1.00" shape="1887.345073,742.245612 1890.825791,742.305808 1890.552421,757.480742 1887.071703,757.420545 1887.345073,742.245612"/>
    <poly id="337462217" type="amenity" color="237,199,199" fill="1" layer="-1.00" shape="1985.094176,649.720626 1985.112653,647.597054 1985.213256,635.342284 2015.167285,633.265193 2017.737681,634.189686 2019.198142,636.288516 2020.398765,661.182679 2020.975761,679.298104 2020.599867,686.808580 2001.962097,686.598289 1997.803071,686.550359 1997.549344,650.052475 1985.094176,649.720626"/>
    <poly id="337462217#1" type="building" color="255,230,230" fill="1" layer="-1.00" shape="1985.094176,649.720626 1985.112653,647.597054 1985.213256,635.342284 2015.167285,633.265193 2017.737681,634.189686 2019.198142,636.288516 2020.398765,661.182679 2020.975761,679.298104 2020.599867,686.808580 2001.962097,686.598289 1997.803071,686.550359 1997.549344,650.052475 1985.094176,649.720626"/>
    <poly id="398518673" type="building" color="255,230,230" fill="1" layer="-1.00" shape="1899.913064,1107.870082 1898.995640,1079.579984 1897.338658,1079.538675 1895.002942,1022.704984 1895.668840,1021.962780 1904.584815,1020.597671 1922.115269,1017.160139 1933.708716,1014.385657 1965.927390,1003.788357 1973.967164,1003.718825 1977.445600,1002.484996 1983.775709,997.740068 2049.346331,975.990407 2056.287963,1046.552637 2060.036238,1084.670179 1984.693426,1101.570658 1958.213218,1106.152159 1947.428049,1106.956510 1905.072733,1114.098848 1902.336998,1114.004147 1900.867356,1113.000278 1900.186756,1111.718511 1899.913064,1107.870082"/>
    <poly id="398587402" type="building" color="255,230,230" fill="1" layer="-1.00" shape="1791.022411,1012.569871 1785.763698,969.201508 1803.014195,964.669537 1796.377447,902.943864 1821.709338,896.738571 1825.829650,918.895700 1835.766768,916.455956 1840.551170,949.417621 1868.172768,942.611026 1869.619514,993.518072 1847.133532,999.253805 1844.219444,980.058642 1828.278223,982.951410 1832.284313,1003.405489 1791.022411,1012.569871"/>
    <poly id="398587402#1" type="shop" color="237,199,255" fill="1" layer="-1.00" shape="1791.022411,1012.569871 1785.763698,969.201508 1803.014195,964.669537 1796.377447,902.943864 1821.709338,896.738571 1825.829650,918.895700 1835.766768,916.455956 1840.551170,949.417621 1868.172768,942.611026 1869.619514,993.518072 1847.133532,999.253805 1844.219444,980.058642 1828.278223,982.951410 1832.284313,1003.405489 1791.022411,1012.569871"/>
    <poly id="399463892" type="amenity" color="237,199,199" fill="1" layer="-1.00" shape="2015.088199,1612.714725 2054.503250,1596.607917 2043.057616,1588.675934 2026.257356,1577.468565 2021.793656,1574.932631 2017.643902,1573.856076 2015.108006,1573.584055 2010.049894,1574.488863 2007.137553,1575.146556 2015.088199,1612.714725"/>
    <poly id="399475235" type="amenity" color="237,199,199" fill="1" layer="-1.00" shape="1929.723542,1622.100730 1925.957423,1592.687530 1956.042095,1588.896067 1959.797102,1618.309290 1929.723542,1622.100730"/>
    <poly id="399475235#1" type="building" color="255,230,230" fill="1" layer="-1.00" shape="1929.723542,1622.100730 1925.957423,1592.687530 1956.042095,1588.896067 1959.797102,1618.309290 1929.723542,1622.100730"/>
    <poly id="399475236" type="amenity" color="237,199,199" fill="1" layer="-1.00" shape="1890.948061,1540.711634 1875.280835,1541.380796 1875.976941,1557.737443 1891.644169,1557.068282 1890.948061,1540.711634"/>
    <poly id="399475236#1" type="building" color="255,230,230" fill="1" layer="-1.00" shape="1890.948061,1540.711634 1875.280835,1541.380796 1875.976941,1557.737443 1891.644169,1557.068282 1890.948061,1540.711634"/>
    <poly id="399477313" type="clinic" color="237,199,199" fill="1" layer="-2.00" shape="1917.246174,1005.467175 1913.749441,983.795576 1927.192511,976.814983 1934.973853,1000.370276 1917.246174,1005.467175"/>
    <poly id="399477313#1" type="building" color="255,230,230" fill="1" layer="-1.00" shape="1917.246174,1005.467175 1913.749441,983.795576 1927.192511,976.814983 1934.973853,1000.370276 1917.246174,1005.467175"/>
    <poly id="399817216" type="parking" color="184,184,179" fill="1" layer="-1.00" shape="1791.761002,362.003100 1793.784343,367.983022 1887.437778,336.472697 1885.414451,330.503834 1791.761002,362.003100"/>
    <poly id="399817217" type="parking" color="184,184,179" fill="1" layer="-1.00" shape="1766.220313,250.330418 1793.717890,255.214470 1797.153293,235.997003 1813.244909,236.455115 1817.161294,212.558374 1807.253953,206.669855 1803.688155,208.788655 1796.605275,209.144077 1766.220313,250.330418"/>
    <poly id="399817218" type="amenity" color="237,199,199" fill="1" layer="-1.00" shape="1779.134042,333.733772 1796.538941,328.537862 1799.287496,310.781546 1823.973400,304.079609 1827.567261,317.787751 1834.792024,315.916847 1840.904945,339.231743 1833.024409,341.280771 1834.099173,345.360039 1785.482099,357.966236 1780.544758,339.139655 1779.134042,333.733772"/>
    <poly id="399817218#1" type="building" color="255,230,230" fill="1" layer="-1.00" shape="1779.134042,333.733772 1796.538941,328.537862 1799.287496,310.781546 1823.973400,304.079609 1827.567261,317.787751 1834.792024,315.916847 1840.904945,339.231743 1833.024409,341.280771 1834.099173,345.360039 1785.482099,357.966236 1780.544758,339.139655 1779.134042,333.733772"/>
    <poly id="399817219" type="amenity" color="237,199,199" fill="1" layer="-1.00" shape="1808.902384,270.881816 1838.333848,275.187308 1835.552884,287.203499 1840.624878,287.891292 1840.116745,296.076661 1833.989579,296.087525 1805.997537,307.108761 1802.660277,306.417892 1801.252970,302.936458 1801.602950,299.628871 1803.688902,290.743921 1805.968519,290.739879 1808.902384,270.881816"/>
    <poly id="402691837" type="building" color="255,230,230" fill="1" layer="-1.00" shape="1854.750231,1036.612379 1874.252082,1034.940983 1873.198017,1011.130468 1871.035795,1008.358211 1868.889606,1008.362008 1848.882260,1013.440808 1854.750231,1036.612379"/>
    <poly id="402691837#1" type="shop" color="237,199,255" fill="1" layer="-1.00" shape="1854.750231,1036.612379 1874.252082,1034.940983 1873.198017,1011.130468 1871.035795,1008.358211 1868.889606,1008.362008 1848.882260,1013.440808 1854.750231,1036.612379"/>
    <poly id="402781599" type="building" color="255,230,230" fill="1" layer="-1.00" shape="2068.267856,740.918603 2068.608904,751.391919 2078.149454,751.076386 2077.808190,740.481410 2085.903220,740.223739 2085.609435,731.320874 2059.901067,732.151709 2060.195067,741.176234 2068.267856,740.918603"/>
    <poly id="402781600" type="building" color="255,230,230" fill="1" layer="-1.00" shape="2037.428735,739.292124 2037.769760,749.754377 2047.310329,749.449907 2046.969067,738.854932 2055.052976,738.597283 2054.770313,729.694400 2029.061930,730.514169 2029.344827,739.549772 2037.428735,739.292124"/>
    <poly id="427421024" type="landuse" color="194,194,130" fill="1" layer="-3.00" shape="1914.673288,1688.775442 1919.020823,1688.502322 1913.325824,1599.544982 1908.978312,1599.829164 1914.673288,1688.775442"/>
    <poly id="451909327" type="building" color="255,230,230" fill="1" layer="-1.00" shape="1758.326778,1162.215354 1775.724222,1171.596735 1778.284941,1192.208210 1763.911852,1195.219838 1758.326778,1162.215354"/>
    <poly id="451909328" type="college" color="237,199,199" fill="1" layer="-2.00" shape="1758.326778,1162.215354 1762.197488,1156.424088 1818.699350,1143.936897 1820.562904,1160.180873 1778.031898,1168.584312 1775.724222,1171.596735 1758.326778,1162.215354"/>
    <poly id="451909329" type="building" color="255,230,230" fill="1" layer="-1.00" shape="1817.924786,1177.560938 1820.587230,1192.808094 1801.255113,1196.149237 1799.704850,1187.281787 1812.500304,1185.080329 1811.388106,1178.689564 1817.924786,1177.560938"/>
    <poly id="451909330" type="parking" color="184,184,179" fill="1" layer="-1.00" shape="1775.724222,1171.596735 1778.031898,1168.584312 1820.562904,1160.180873 1822.692422,1175.904555 1810.742198,1178.159821 1811.742471,1184.141561 1800.293730,1187.004244 1778.284941,1192.208210 1775.724222,1171.596735"/>
    <poly id="453618465" type="building" color="255,230,230" fill="1" layer="-1.00" shape="1831.989289,1308.222093 1834.993539,1321.820694 1841.951564,1319.994542 1839.158948,1306.594648 1831.989289,1308.222093"/>
    <poly id="453618466" type="parking" color="184,184,179" fill="1" layer="-1.00" shape="1831.989289,1308.222093 1834.993539,1321.820694 1802.793227,1330.272206 1786.776424,1334.470160 1784.147296,1319.189766 1831.989289,1308.222093"/>
    <poly id="462865827" type="building" color="255,230,230" fill="1" layer="-1.00" shape="1869.563164,1483.668278 1868.324295,1455.931757 1880.245002,1455.833273 1896.697784,1459.210709 1893.909645,1467.223143 1888.759882,1472.895011 1880.476198,1479.689484 1869.563164,1483.668278"/>
    <poly id="462865827#1" type="tourism" color="207,245,201" fill="1" layer="-2.00" shape="1869.563164,1483.668278 1868.324295,1455.931757 1880.245002,1455.833273 1896.697784,1459.210709 1893.909645,1467.223143 1888.759882,1472.895011 1880.476198,1479.689484 1869.563164,1483.668278"/>
    <poly id="467458093" type="building" color="255,230,230" fill="1" layer="-1.00" shape="1905.714030,841.842418 1919.253815,839.252502 1923.806818,860.833747 1909.312226,864.288040 1905.714030,841.842418"/>
    <poly id="467458094" type="building" color="255,230,230" fill="1" layer="-1.00" shape="1905.714030,841.842418 1919.253815,839.252502 1917.358589,830.263999 1904.730403,832.708521 1905.714030,841.842418"/>
    <poly id="469487632" type="building" color="255,230,230" fill="1" layer="-1.00" shape="1880.415466,1514.551002 1879.371952,1496.679737 1881.507557,1496.974586 1883.699682,1497.789160 1884.825518,1499.313464 1885.830087,1501.435227 1886.422252,1503.015774 1887.781729,1504.606025 1889.028754,1505.488629 1890.276385,1506.714095 1891.512388,1507.652020 1892.937023,1508.357349 1894.239435,1509.118194 1895.830658,1509.701567 1897.021770,1510.407309 1897.616651,1513.525204 1880.415466,1514.551002"/>
    <poly id="469487632#1" type="tourism" color="207,245,201" fill="1" layer="-2.00" shape="1880.415466,1514.551002 1879.371952,1496.679737 1881.507557,1496.974586 1883.699682,1497.789160 1884.825518,1499.313464 1885.830087,1501.435227 1886.422252,1503.015774 1887.781729,1504.606025 1889.028754,1505.488629 1890.276385,1506.714095 1891.512388,1507.652020 1892.937023,1508.357349 1894.239435,1509.118194 1895.830658,1509.701567 1897.021770,1510.407309 1897.616651,1513.525204 1880.415466,1514.551002"/>
    <poly id="479884124" type="building" color="255,230,230" fill="1" layer="-1.00" shape="1825.125807,1199.967008 1822.692422,1175.904555 1820.562904,1160.180873 1818.699350,1143.936897 1875.889924,1131.028172 1879.909467,1133.940927 1882.608685,1188.838455 1861.882730,1190.025356 1825.125807,1199.967008"/>
    <poly id="479884124#1" type="shop" color="237,199,255" fill="1" layer="-1.00" shape="1825.125807,1199.967008 1822.692422,1175.904555 1820.562904,1160.180873 1818.699350,1143.936897 1875.889924,1131.028172 1879.909467,1133.940927 1882.608685,1188.838455 1861.882730,1190.025356 1825.125807,1199.967008"/>
    <poly id="48201052" type="tourism" color="207,245,201" fill="1" layer="-2.00" shape="1630.834804,1118.709100 1630.559497,1120.235877 1637.719456,1157.186008 1638.534021,1158.766160 1640.180565,1159.194594 1743.383679,1138.429405 1744.839051,1137.652627 1745.180980,1136.070430 1735.996602,1092.543113 1734.871511,1091.439093 1732.936527,1091.398274 1631.767489,1117.911127 1630.834804,1118.709100"/>
    <poly id="48591914" type="historic" color="128,255,128" fill="1" layer="-1.00" shape="1643.325558,240.417183 1655.824047,252.682788 1729.823681,325.338073 1748.969527,336.198330 1764.934459,353.014551 1770.750956,347.120276 1776.929711,338.570938 1776.592678,336.636020 1775.000585,335.554953 1772.484349,333.811918 1770.902769,332.387970 1770.464930,330.044008 1771.161869,327.996656 1773.283590,326.743106 1775.616847,325.632962 1795.464732,318.497205 1804.862186,268.853923 1917.691805,284.149029 1967.027567,-12.692039 1950.097430,-53.274661 1949.259792,-55.319292 1932.395711,-96.278070 1932.038455,-97.073763 1893.822421,-69.930783 1882.663789,-60.321868 1856.971168,-38.200310 1826.980592,-12.963249 1813.878433,-1.946268 1796.167421,18.712227 1791.551014,24.095621 1759.569065,61.391674 1744.581408,81.459134 1741.286577,85.877952 1728.140685,103.597402 1725.178709,107.595345 1716.660505,120.019864 1707.776258,132.964855 1702.896038,140.085141 1700.988289,142.853544 1702.758967,144.310336 1704.418288,145.678845 1707.302620,148.062710 1708.183830,149.598499 1708.020676,151.655964 1701.930603,160.039244 1646.176498,236.507923 1643.325558,240.417183"/>
    <poly id="48597757" type="tourism" color="207,245,201" fill="1" layer="-2.00" shape="1767.638305,850.050076 1784.812095,846.170777 1780.954849,828.138600 1719.827382,840.744654 1726.475939,865.153557 1759.545174,857.662675 1758.289994,852.168033 1767.638305,850.050076"/>
    <poly id="552392470" type="tourism" color="207,245,201" fill="1" layer="-2.00" shape="1999.122317,1042.130262 2000.278203,1016.656804 2039.351178,1021.022727 2039.683949,1039.392969 1999.122317,1042.130262"/>