<?xml version="1.0" encoding="UTF-8"?>

<!-- generated on 2024-07-04 08:33:29.317523 by randomTrips.py v1_19_0+1520-dc4640af2ac
<configuration>
    <net-file value="huaynacapac.net.xml"/>
    <route-file value="mapa.rou.xml"/>
    <verbose value="True"/>
    <period value="36.0"/>
</configuration>
-->

<!-- generated on 2024-07-04 08:33:29 by Eclipse SUMO duarouter Version v1_19_0+1520-dc4640af2ac
<configuration xmlns:xsi="http://www.w3.org/2001/XMLSchema-instance" xsi:noNamespaceSchemaLocation="http://sumo.dlr.de/xsd/duarouterConfiguration.xsd">

    <input>
        <net-file value="huaynacapac.net.xml"/>
        <route-files value="trips.trips.xml"/>
    </input>

    <output>
        <output-file value="mapa.rou.xml"/>
        <alternatives-output value="NUL"/>
    </output>

    <time>
        <begin value="0.0"/>
        <end value="3600.0"/>
    </time>

    <report>
        <verbose value="true"/>
        <ignore-errors value="true"/>
        <no-step-log value="true"/>
    </report>

</configuration>
-->

<routes xmlns:xsi="http://www.w3.org/2001/XMLSchema-instance" xsi:noNamespaceSchemaLocation="http://sumo.dlr.de/xsd/routes_file.xsd">
    <vehicle id="0" depart="0.00">
        <route edges="45421575#1 45421575#2 45421575#3 48202929#0 48202929#1 48202921 389741417#0 389741417#1 389741416 389741419 42141326#0 42201277#0 42201277#1 42143918#12 -48202923 -389741419"/>
    </vehicle>
    <vehicle id="2" depart="72.00">
        <route edges="48501815#0 48501815#1 559910546#3 559910546#4 559910546#5 542434369#2 542434369#3 48500734#11 48500734#12 48500734#13 48500734#1 48500734#2 303057278 48202930 48202929#0 48202929#1 48202921 389741417#0 389741417#1 389741416 389741419 48202923 48202922 893240697 42201276#0 42201277#3 42201277#4 42201277#5 334968591#1 334968591#2 334968591#3 893257053 559164160 48147644#0"/>
    </vehicle>
    <vehicle id="3" depart="108.00">
        <route edges="554582109#2 48202921 389741417#0 389741417#1 389741416 389741419 42141326#0 42201277#0 42201277#1 42143918#12 300069416#0 300069416#1 300069417#0 300069417#1 300069417#2 49577311#0 49577311#1 49577311#2 370601722#1 -47861237 -604749597"/>
    </vehicle>
    <vehicle id="5" depart="180.00">
        <route edges="311212628#1 48202923 48202922 893240697 42201276#0 42201277#3 42201277#4 42201278#1 42195044#1"/>
    </vehicle>
    <vehicle id="6" depart="216.00">
        <route edges="-389741418 -47861237 -604749597 -47861236 -47861233 -48202922 -48202923 -389741419 -389741416 -389741417#1 -389741417#0 -48202921 -48202929#1 -48202929#0 -48202930 416775490#0 416775490#1 48500734#5 48500734#6 48500734#7 48501815#0 48501815#1 334968130#0 334968130#1"/>
    </vehicle>
    <vehicle id="7" depart="252.00">
        <route edges="45421576#0 559910546#0 559910546#1 559910546#2 559910546#3 559910546#4 559910546#5 542434369#2 542434369#3 48500734#11 48500734#12 48500734#13 48500734#1 48500734#2 303057278 48202930 48202929#0 48202929#1 48202921 389741417#0 389741417#1 389741416 389741419 48202923 48202922 893240697 42201276#0 42201276#1"/>
    </vehicle>
    <vehicle id="8" depart="288.00">
        <route edges="311212628#1 48202923 48202922 47861233 47861236 604749597 893253783 42201278#0"/>
    </vehicle>
    <vehicle id="9" depart="324.00">
        <route edges="492470513#0 492470517 552651836 48500734#2 303057278 48202930 48202929#0 48202929#1 48202921 389741417#0 389741417#1 389741416 389741419 42141326#0 42201277#0 42201277#1 42143918#12 -48202923 -389741419 -389741416"/>
    </vehicle>
    <vehicle id="10" depart="360.00">
        <route edges="492443599#1 552651836 48500734#2 48500734#3 48500734#4 48500734#5 48500734#6 48500734#7 48501815#0 48501815#1 559910546#3 559910546#4 559910546#5 48202925#0"/>
    </vehicle>
    <vehicle id="12" depart="432.00">
        <route edges="893253783 42201281#1 42492699#4 -47861233 -48202922 -48202923 -389741419 -389741416 -389741417#1 -389741417#0 -48202921 -48202929#1 48202929#1 48202921 894151134#0 894151134#1 894151134#2 894151134#3 -1023791772 40668087#0 40668087#1 40668087#2 40668087#3 40668087#4 40668087#5"/>
    </vehicle>
    <vehicle id="13" depart="468.00">
        <route edges="-48202922 -48202923 -389741419 -389741416 -389741417#1 -389741417#0 -48202921 -48202929#1 -48202929#0 -48202930 416775490#0 416775490#1 48500734#5 48500734#6 48500734#7 48501815#0 48501815#1 48501815#2 48501815#3 -972644144#1"/>
    </vehicle>
    <vehicle id="14" depart="504.00">
        <route edges="542434369#0 542434369#1 542434369#2 542434369#3 48500734#11 48500734#12 48500734#13 48500734#1 48500734#2 303057278 48202930 48202929#0 48202929#1 48202921 389741417#0 389741417#1 389741416 389741419 48202923 48202922 47861233 47861236 604749597 893253783 42201281#1"/>
    </vehicle>
    <vehicle id="15" depart="540.00">
        <route edges="492470513#0 492470517 48500733"/>
    </vehicle>
    <vehicle id="16" depart="576.00">
        <route edges="42195044#7 42195044#8 1023791772 1023791771#0 1023791771#1 1023791771#2 554582109#1 554582109#2 48202921 894151134#0"/>
    </vehicle>
    <vehicle id="17" depart="612.00">
        <route edges="416775490#1 48500734#5 48500734#6 48500734#7 48500734#8 48500734#9 48500734#10 48500734#11 48500734#12 48500734#13 48500734#1 48500734#2 303057278 48202930 48202929#0 48202929#1 48202921 389741417#0 389741417#1 389741416 389741419 48202923 48202922 893240697 42201276#0 42201276#1 42201276#2"/>
    </vehicle>
    <vehicle id="18" depart="648.00">
        <route edges="49577049#1 311212628#1 48202923 48202922 893240697 42201276#0 42201277#3 42201277#4 42201278#1 42195044#1 42492699#1"/>
    </vehicle>
    <vehicle id="19" depart="684.00">
        <route edges="542434369#3 48500734#11 48500734#12 48500734#13 48500734#1 48500734#2 303057278 48202930 48202929#0 48202929#1 48202921 389741417#0 389741417#1 389741416 389741419 48202923 48202922 893240697 42201276#0 42201277#3 42201277#4"/>
    </vehicle>
    <vehicle id="20" depart="720.00">
        <route edges="48202925#1 542435211 48202933 48500734#13 48500734#1 48500734#2 303057278 48202930 48202929#0 48202929#1 48202921 389741417#0 389741417#1 389741416 389741419 42141326#0 42201277#0 42201277#1 42143918#12 300069416#0 300069416#1 300069417#0 300069417#1 300069417#2 49577311#0 49577311#1 49577311#2 370601722#1 -47861237 -604749597 -47861236"/>
    </vehicle>
    <vehicle id="21" depart="756.00">
        <route edges="334968130#1 542434369#3 48500734#11 305214684 542435211 399285450#0"/>
    </vehicle>
    <vehicle id="23" depart="828.00">
        <route edges="-48202929#0 -48202930 48202930 48202929#0 48202929#1 48202921 894151134#0 894151134#1 894151134#2 894151134#3 1023791771#0 1023791771#1 1023791771#2 554582109#1 554582109#2 398532019#0 398532019#1"/>
    </vehicle>
    <vehicle id="24" depart="864.00">
        <route edges="45421575#1 45421575#2 45421575#3 48202929#0 48202929#1 48202921 389741417#0 389741417#1 389741416 389741419 48202923 48202922 893240697 42201276#0 42201277#3 42492699#2 410645791 410645792"/>
    </vehicle>
    <vehicle id="25" depart="900.00">
        <route edges="410645791 -410645791 42492699#3 42492699#4 47861236 604749597 893253783 42201278#0 42201277#5 334968591#1 334968591#2"/>
    </vehicle>
    <vehicle id="26" depart="936.00">
        <route edges="337277984#4 337277984#5 337277984#6 389741419 48202923 48202922 47861233 47861236 604749597"/>
    </vehicle>
    <vehicle id="27" depart="972.00">
        <route edges="45421575#3 48202929#0 48202929#1 48202921 389741417#0 389741417#1 389741416 389741419 48202923 48202922 47861233 47861236 604749597 893253783 42201281#1 42201281#2"/>
    </vehicle>
    <vehicle id="29" depart="1044.00">
        <route edges="118664583#0 49577049#0 49577049#1 311212628#1 -389741419 -389741416 -389741417#1 -389741417#0 -48202921 -48202929#1 -48202929#0 -48202930 416775490#0"/>
    </vehicle>
    <vehicle id="30" depart="1080.00">
        <route edges="940158936#2 -48202922 -48202923 -389741419 -389741416 -389741417#1 -389741417#0 -48202921 398532019#0 48583899#0 45421575#2"/>
    </vehicle>
    <vehicle id="33" depart="1188.00">
        <route edges="334968130#1 542434369#3 48500734#11 48500734#12 48500734#13 48500734#1 48500734#2 303057278 48202930 48202929#0 48202929#1 48202921 389741417#0 389741417#1 389741416 389741419 42141326#0 42201277#0 -402762621 402762623#0 402762623#1 -402762623#1 -402762623#0"/>
    </vehicle>
    <vehicle id="35" depart="1260.00">
        <route edges="305214684 542435211 48202933 48500734#13 48500734#1 48500734#2 48500734#3 48500734#4 48500734#5 48500734#6 48500734#7 48501815#0 48501815#1 48501815#2 48501815#3 65107406#0 65107406#1"/>
    </vehicle>
    <vehicle id="36" depart="1296.00">
        <route edges="547510537 559910546#1 559910546#2 559910546#3 559910546#4 559910546#5 542434369#2 542434369#3 48500734#11 48500734#12 48500734#13 48500734#1 48500734#2 303057278 48202930 48202929#0 48202929#1 48202921 894151134#0 894151134#1 894151134#2 894151134#3 -1023791772 40668087#0"/>
    </vehicle>
    <vehicle id="39" depart="1404.00">
        <route edges="337277984#3 337277984#4 337277984#5 337277984#6 -389741416 118664583#0 49577049#0 49577049#1 49577049#2 300069416#1 300069417#0 300069417#1 300069417#2 49577311#0 49577311#1 49577311#2 370601722#1"/>
    </vehicle>
    <vehicle id="40" depart="1440.00">
        <route edges="42201277#0 42201277#1 42143918#12 -48202923 -389741419 -389741416 -389741417#1 -389741417#0 -48202921 -48202929#1 48202929#1 48202921 389741417#0 389741417#1"/>
    </vehicle>
    <vehicle id="41" depart="1476.00">
        <route edges="42201277#5 334968591#1 334968591#2 334968591#3 893257053 559164160"/>
    </vehicle>
    <vehicle id="43" depart="1548.00">
        <route edges="972644144#1 65107406#0 65107406#1 65107406#2 542434369#2 542434369#3 48500734#11 48500734#12 48500734#13 48500734#1 48500734#2 303057278 48202930 48202929#0 48202929#1 48202921 389741417#0 389741417#1 389741416 389741419 48202923 48202922 893240697 42201276#0 42201277#3 42201277#4 42201278#1 42195044#1 42195044#2"/>
    </vehicle>
    <vehicle id="44" depart="1584.00">
        <route edges="-48202922 300069416#0 300069416#1 300069417#0 300069417#1 300069417#2 49577311#0 49577311#1 49577311#2 370601722#1 -47861237 -604749597 -47861236"/>
    </vehicle>
    <vehicle id="45" depart="1620.00">
        <route edges="-48202930 48202930 48202929#0 48202929#1 48202921 389741417#0 389741417#1 389741416 389741419 48202923 48202922 893240697 42201276#0 42201277#3 42492699#2 42492699#3"/>
    </vehicle>
    <vehicle id="46" depart="1656.00">
        <route edges="48909342#4 48909342#5 389741417#0 389741417#1 389741416 389741419 42141326#0 42141326#1 42141326#2 42141326#3"/>
    </vehicle>
    <vehicle id="47" depart="1692.00">
        <route edges="-410645794 -47861236 -47861233 -48202922 -48202923 -389741419 -389741416 -389741417#1 -389741417#0 -48202921 -48202929#1 -48202929#0 -48202930 416775490#0 416775490#1"/>
    </vehicle>
    <vehicle id="48" depart="1728.00">
        <route edges="972644144#1 65107406#0 65107406#1 65107406#2 542434369#2 542434369#3 48500734#11 48500734#12 48500734#13 48500734#1 48500734#2 303057278 48202930 48202929#0 48202929#1 48202921 389741417#0 389741417#1 389741416 389741419 42141326#0 42141326#1 42195044#5 42195044#6"/>
    </vehicle>
    <vehicle id="49" depart="1764.00">
        <route edges="894151134#1 894151134#2 894151134#3 1023791771#0 1023791771#1 1023791771#2 1023791771#3 1023791771#4 492470517 492470515#0 492470515#1 518706138#1"/>
    </vehicle>
    <vehicle id="50" depart="1800.00">
        <route edges="-389741416 -389741417#1 -389741417#0 -48202921 -48202929#1 -48202929#0 -48202930 416775490#0 416775490#1 48500734#5 48500734#6 48500734#7 48500734#8 48500734#9 48500734#10 48500734#11 305214684 542435211 48202933"/>
    </vehicle>
    <vehicle id="51" depart="1836.00">
        <route edges="48201047 42195044#7 42195044#8"/>
    </vehicle>
    <vehicle id="52" depart="1872.00">
        <route edges="337277984#4 337277984#5 337277984#6 -389741416 -389741417#1 -389741417#0 -48202921 398532019#0 48583899#0 45421575#2"/>
    </vehicle>
    <vehicle id="53" depart="1908.00">
        <route edges="-48202930 48202930 48202929#0 48202929#1 48202921 389741417#0 389741417#1 389741416 389741419 42141326#0 42141326#1 42141326#2 42141326#3 42141326#4 42141326#5 42141326#6"/>
    </vehicle>
    <vehicle id="54" depart="1944.00">
        <route edges="42143918#1 42143918#2 42143918#3 42143918#4 42143918#5 42143918#6 42143918#7 42143918#8 42143918#9 42143918#10 42143918#11 42143918#12 48202922 893240697"/>
    </vehicle>
    <vehicle id="55" depart="1980.00">
        <route edges="547510537 559910546#1 559910546#2 559910546#3 559910546#4 559910546#5 542434369#2 542434369#3 48500734#11 48500734#12 48500734#13 48500734#1 48500734#2 303057278 48202930 48202929#0 48202929#1 48202921 389741417#0 389741417#1"/>
    </vehicle>
    <vehicle id="56" depart="2016.00">
        <route edges="42143918#9 42143918#10 42143918#11 42143918#12 -48202923 -389741419 -389741416 -389741417#1 -389741417#0 -48202921 -48202929#1 -48202929#0 -48202930 416775490#0 416775490#1 48500734#5 48500734#6 48500734#7 48500734#8 48500734#9 48500734#10 48500734#11 305214684"/>
    </vehicle>
    <vehicle id="57" depart="2052.00">
        <route edges="559910546#2 559910546#3 559910546#4 559910546#5 542434369#2"/>
    </vehicle>
    <vehicle id="58" depart="2088.00">
        <route edges="389741417#1 389741416 389741419 42141326#0 42201277#0 42201277#1 42143918#12 -48202923 -389741419 -389741416 -389741417#1 -389741417#0 -48202921 398532019#0 48583899#0 45421575#2"/>
    </vehicle>
    <vehicle id="59" depart="2124.00">
        <route edges="42492699#0 42195044#2 42195044#3 42143918#11 42143918#12 300069416#0"/>
    </vehicle>
    <vehicle id="61" depart="2196.00">
        <route edges="48909342#1 48909342#2 48909342#3 48909342#4 48909342#5 389741417#0 389741417#1 389741416 389741419 42141326#0 42141326#1 42195044#5 42195044#6"/>
    </vehicle>
    <vehicle id="62" depart="2232.00">
        <route edges="-1023791772 40668087#0 40668087#1 40668087#2"/>
    </vehicle>
    <vehicle id="63" depart="2268.00">
        <route edges="-389741417#1 -389741417#0 -48202921 -48202929#1 48202929#1 48202921 389741417#0 389741417#1 389741416 389741419 48202923 48202922 47861233 47861236 604749597 47861237 389741418 60204530"/>
    </vehicle>
    <vehicle id="64" depart="2304.00">
        <route edges="552651836 48500734#2 303057278 48202930 48202929#0 48202929#1 48202921 389741417#0 389741417#1 389741416 389741419 42141326#0 42201277#0 42201277#1 42143918#12 -48202923 -389741419 -389741416 118664583#0 49577049#0 49577049#1 49577049#2"/>
    </vehicle>
    <vehicle id="65" depart="2340.00">
        <route edges="389741419 42141326#0 42201277#0 42201277#1 42143918#12 -48202923 -389741419 -389741416 -389741417#1 -389741417#0 -48202921"/>
    </vehicle>
    <vehicle id="66" depart="2376.00">
        <route edges="547510537 559910546#1 559910546#2 48501815#2 48501815#3 65107406#0 65107406#1 65107406#2"/>
    </vehicle>
    <vehicle id="68" depart="2448.00">
        <route edges="-424074247 49577049#1 311212628#1 -389741419 -389741416 -389741417#1 -389741417#0 -48202921 398532019#0 48583899#0 48583899#1"/>
    </vehicle>
    <vehicle id="69" depart="2484.00">
        <route edges="48866096 972644144#1 65107406#0 65107406#1 65107406#2 542434369#2 542434369#3 48500734#11 48500734#12 48500734#13 48500734#1 48500734#2 303057278 48202930 48202929#0 48202929#1 48202921 389741417#0 389741417#1 389741416 389741419 42141326#0 42201277#0 42201277#1 42143918#12 -48202923 -389741419 -389741416 118664583#0"/>
    </vehicle>
    <vehicle id="70" depart="2520.00">
        <route edges="42143918#3 42143918#4 42143918#5 42143918#6 42143918#7 42143918#8 42143918#9 42143918#10 42143918#11 42201277#2 42201276#1 42201276#2"/>
    </vehicle>
    <vehicle id="71" depart="2556.00">
        <route edges="337277984#3 337277984#4 337277984#5 337277984#6 -389741416 -389741417#1 -389741417#0 -48202921 -48202929#1 -48202929#0 -48202930 416775490#0 416775490#1 48500734#5 48500734#6 48500734#7 48501815#0 48501815#1 559910546#3 559910546#4 559910546#5 542434369#2 542434369#3"/>
    </vehicle>
    <vehicle id="73" depart="2628.00">
        <route edges="42195044#7 42195044#8 1023791772 1023791771#0 1023791771#1 1023791771#2 1023791771#3 1023791771#4 492470517 48500733"/>
    </vehicle>
    <vehicle id="74" depart="2664.00">
        <route edges="300069417#2 940158936#1 940158936#2 -48202922 -48202923 -389741419 -389741416 118664583#0 49577049#0 49577049#1 311212628#1 42141326#0 42201277#0 -402762621 402762623#0 402762623#1"/>
    </vehicle>
    <vehicle id="75" depart="2700.00">
        <route edges="972644144#0 972644144#1 65107406#0 65107406#1 65107406#2 542434369#2 542434369#3 48500734#11 48500734#12 48500734#13 48500734#1 48500734#2 48500734#3 48500734#4 48500734#5 45421576#0"/>
    </vehicle>
    <vehicle id="80" depart="2880.00">
        <route edges="-424074247 49577049#1 311212628#1 48202923 48202922 47861233 47861236 604749597 893253783 42201281#1 42492699#4"/>
    </vehicle>
    <vehicle id="81" depart="2916.00">
        <route edges="334968130#1 542434369#3 48500734#11 48500734#12 48500734#13 48500734#1 48500734#2 48500734#3 48500734#4 48500734#5 45421576#0 559910546#0"/>
    </vehicle>
    <vehicle id="82" depart="2952.00">
        <route edges="542434369#2 542434369#3 48500734#11 48500734#12 48500734#13 48500734#1 48500734#2 303057278 48202930 48202929#0 -48202929#0"/>
    </vehicle>
    <vehicle id="83" depart="2988.00">
        <route edges="334968591#1 42201281#0 42201281#1 42492699#4 47861236"/>
    </vehicle>
    <vehicle id="84" depart="3024.00">
        <route edges="311212628#0 311212628#1 -389741419 -389741416 118664583#0 118664583#1"/>
    </vehicle>
    <vehicle id="85" depart="3060.00">
        <route edges="65107406#0 65107406#1 65107406#2 542434369#2 542434369#3 48500734#11 48500734#12 48500734#13 48500734#1 48500734#2 303057278 48202930 48202929#0 48202929#1 48202921 389741417#0 389741417#1 389741416 389741419 42141326#0 42201277#0 42201277#1 42201277#2"/>
    </vehicle>
    <vehicle id="87" depart="3132.00">
        <route edges="492470513#0 492470517 552651836 48500734#2 303057278 48202930 48202929#0 48202929#1 48202921 389741417#0 389741417#1 389741416 389741419 42141326#0 42201277#0 42201277#1 42143918#12 -48202923 -389741419 -389741416 118664583#0 49577049#0 49577049#1 311212628#1"/>
    </vehicle>
    <vehicle id="88" depart="3168.00">
        <route edges="-48202923 -389741419 -389741416 118664583#0 49577049#0 49577049#1 311212628#1 42141326#0 42141326#1 42141326#2 42141326#3 42141326#4 42141326#5"/>
    </vehicle>
    <vehicle id="91" depart="3276.00">
        <route edges="940158936#1 940158936#2 -48202922 -48202923 -389741419 -389741416 -389741417#1 -389741417#0 -48202921 -48202929#1 48202929#1 48202921 894151134#0 894151134#1 894151134#2 894151134#3 1023791771#0"/>
    </vehicle>
    <vehicle id="93" depart="3348.00">
        <route edges="542434369#3 48500734#11 48500734#12 48500734#13 48500734#1 48500734#2 303057278 48202930 48202929#0 48202929#1 48202921 389741417#0 389741417#1 389741416 389741419 42141326#0 42201277#0 42201277#1 42143918#12 300069416#0 300069416#1 300069417#0 300069417#1 300069417#2 49577311#0 49577311#1 49577311#2 370601722#1"/>
    </vehicle>
    <vehicle id="94" depart="3384.00">
        <route edges="300069417#0 300069417#1 300069417#2 940158936#1 940158936#2 893240697 42201276#0 42201276#1 42195044#3 42195044#4 42141326#2 42141326#3 42141326#4 42141326#5 42141326#6 42141326#7 42141326#8 42141326#9"/>
    </vehicle>
    <vehicle id="96" depart="3456.00">
        <route edges="337277984#0 337277984#1 337277984#2 337277984#3 337277984#4 337277984#5 337277984#6 -389741416 -389741417#1 -389741417#0 -48202921 -48202929#1 -48202929#0 -48202930 416775490#0 416775490#1 48500734#5 48500734#6 48500734#7 48501815#0 48501815#1 559910546#3 559910546#4"/>
    </vehicle>
    <vehicle id="98" depart="3528.00">
        <route edges="42201276#1 42195044#3 42143918#11 42143918#12 300069416#0 300069416#1 300069417#0 300069417#1 300069417#2 49577311#0 49577311#1 49577311#2 370601722#1 -47861237"/>
    </vehicle>
    <vehicle id="99" depart="3564.00">
        <route edges="972644144#1 65107406#0 65107406#1 65107406#2 542434369#2 542434369#3 48500734#11 48500734#12 48500734#13 48500734#1 48500734#2 303057278 48202930 48202929#0 48202929#1 48202921 389741417#0 389741417#1 389741416 389741419 42141326#0 42201277#0 42201277#1 42143918#12 300069416#0 300069416#1 300069417#0 300069417#1 300069417#2 49577311#0 49577311#1 49577311#2"/>
    </vehicle>
</routes>
