<?xml version="1.0" encoding="UTF-8"?>

<!-- generated on 2024-07-03 23:44:50 by Eclipse SUMO netedit Version v1_19_0+1520-dc4640af2ac
-->

<routes xmlns:xsi="http://www.w3.org/2001/XMLSchema-instance" xsi:noNamespaceSchemaLocation="http://sumo.dlr.de/xsd/routes_file.xsd">
    <!-- Vehicles, persons and containers (sorted by depart) -->
    <flow id="f_0" begin="0.00" from="893257053" to="559164160" end="3600.00" vehsPerHour="100"/>
    <flow id="f_1" begin="0.00" from="893257053" to="-389741418" end="3600.00" vehsPerHour="400"/>
</routes>
