<?xml version="1.0" encoding="UTF-8"?>

<!-- generated on 2024-07-06 11:47:17 by Eclipse SUMO jtrrouter Version v1_19_0+1520-dc4640af2ac
<configuration xmlns:xsi="http://www.w3.org/2001/XMLSchema-instance" xsi:noNamespaceSchemaLocation="http://sumo.dlr.de/xsd/jtrrouterConfiguration.xsd">

    <input>
        <net-file value="huaynacapac.net.xml"/>
        <route-files value="flows.xml"/>
        <turn-ratio-files value="turns.xml"/>
    </input>

    <output>
        <output-file value="rutasjtrrouter.rou.xml"/>
    </output>

    <processing>
        <randomize-flows value="true"/>
        <remove-loops value="true"/>
    </processing>

    <report>
        <ignore-errors value="true"/>
    </report>

</configuration>
-->

<routes xmlns:xsi="http://www.w3.org/2001/XMLSchema-instance" xsi:noNamespaceSchemaLocation="http://sumo.dlr.de/xsd/routes_file.xsd">
    <vType id="auto" speedFactor="1.00" vClass="passenger" color="red"/>
    <vehicle id="a2.0" type="auto" depart="0.79" departLane="free">
        <route edges="893257053 -389741418 -47861237 -604749597 410645794 -410645794 -47861236 -47861233 -48202922 -48202923 -389741419 -389741416 -389741417#1 -389741417#0 -48202921 -48202929#1 -48202929#0 -48202930 416775490#0 416775490#1 48500734#5"/>
    </vehicle>
    <vehicle id="a2.1" type="auto" depart="2.36" departLane="free">
        <route edges="893257053 -389741418 -47861237 -604749597 -47861236 -47861233 -48202922 -48202923 -389741419 -389741416 -389741417#1 -389741417#0 -48202921 48202921 894151134#0 894151134#1 894151134#2 894151134#3 1023791771#0 1023791771#1 1023791771#2 1023791771#3 1023791771#4 492470517 48500733 48500732 48583900 45421576#2"/>
    </vehicle>
    <vehicle id="a2.2" type="auto" depart="9.74" departLane="free">
        <route edges="893257053 -389741418 -47861237 -604749597 -47861236 -47861233 -48202922 300069416#0 300069416#1 300069417#0 300069417#1 49577742"/>
    </vehicle>
    <vehicle id="a2.3" type="auto" depart="13.05" departLane="free">
        <route edges="893257053 559164160 40972457#0 40972457#1 40972457#2"/>
    </vehicle>
    <vehicle id="a2.4" type="auto" depart="13.56" departLane="free">
        <route edges="893257053 559164160 40972457#0 410645790 -410645790 40972457#1 40972457#2"/>
    </vehicle>
    <vehicle id="a2.5" type="auto" depart="16.72" departLane="free">
        <route edges="893257053 559164160 40972457#0 410645790 -410645790 40972457#1 40972457#2"/>
    </vehicle>
    <vehicle id="a2.6" type="auto" depart="18.13" departLane="free">
        <route edges="893257053 60204530"/>
    </vehicle>
    <vehicle id="a2.7" type="auto" depart="18.39" departLane="free">
        <route edges="893257053 60204530"/>
    </vehicle>
    <vehicle id="a2.8" type="auto" depart="22.71" departLane="free">
        <route edges="893257053 -389741418 -47861237 -604749597 410645794 -410645794 604749597 893253783 42201281#1 42201281#2 42201276#0 42201276#1 42195044#3 42195044#4 42141326#2 42141326#3 42141326#4 42141326#5 42141326#6 42141326#7 42141326#8 42141326#9 42141326#10 42141326#11 42141326#12 42141326#13 42141326#14"/>
    </vehicle>
    <vehicle id="a2.9" type="auto" depart="27.48" departLane="free">
        <route edges="893257053 -389741418 -47861237 -604749597 -47861236 893252088 49582170 940158936#2 -48202922 -48202923 -389741419 -389741416 118664583#0 49577049#0 424074247 -424074247 49577049#1 311212628#1 42141326#0 42141326#1 42141326#2 42141326#3 42141326#4 42141326#5 42141326#6 42141326#7 42141326#8 42141326#9 42141326#10 42141326#11 42141326#12 42141326#13 42141326#14"/>
    </vehicle>
    <vehicle id="a2.10" type="auto" depart="39.03" departLane="free">
        <route edges="893257053 -389741418 -47861237 -604749597 410645794 -410645794 604749597 893253783 42201281#1 42201281#2 42201276#0 42201276#1 42201276#2 42201276#3"/>
    </vehicle>
    <vehicle id="a2.11" type="auto" depart="47.01" departLane="free">
        <route edges="893257053 559164160 48147644#0 48147644#1 49582171#1"/>
    </vehicle>
    <vehicle id="a2.12" type="auto" depart="50.60" departLane="free">
        <route edges="893257053 559164160 40972457#0 40972457#1 40972457#2"/>
    </vehicle>
    <vehicle id="a2.13" type="auto" depart="55.65" departLane="free">
        <route edges="893257053 -389741418 -47861237 -604749597 -47861236 893252088 49582170 940158936#2 893240697 42201276#0 42201276#1 42195044#3 42195044#4 42195044#5 337277984#6 -389741416 -389741417#1 -389741417#0 -48202921 398532019#0 398532019#1 398532019#2"/>
    </vehicle>
    <vehicle id="a2.14" type="auto" depart="57.85" departLane="free">
        <route edges="893257053 -389741418 -47861237 -604749597 410645794 -410645794 604749597 893253783 42201281#1 42201281#2 42201276#0 42201276#1 42195044#3 42143918#11 42201277#2 42201277#3 42492699#2 410645791 410645792 -410645792 410645793 -410645793 -410645791 42492699#3 42492699#4 893252088 186249134 49577311#1 49582171#0 49582171#1"/>
    </vehicle>
    <vehicle id="a2.15" type="auto" depart="81.63" departLane="free">
        <route edges="893257053 559164160 40972457#0 410645790 -410645790 40972457#1 40972457#2"/>
    </vehicle>
    <vehicle id="a2.16" type="auto" depart="89.60" departLane="free">
        <route edges="893257053 -389741418 -47861237 -604749597 410645794 -410645794 -47861236 -47861233 -48202922 300069416#0 300069416#1 264394468"/>
    </vehicle>
    <vehicle id="a2.17" type="auto" depart="100.63" departLane="free">
        <route edges="893257053 559164160 40972457#0 410645790 -410645790 40972457#1 40972457#2"/>
    </vehicle>
    <vehicle id="a2.18" type="auto" depart="107.79" departLane="free">
        <route edges="893257053 -389741418 -47861237 -604749597 410645794 -410645794 -47861236 -47861233 -48202922 -48202923 -389741419 -389741416 -389741417#1 -389741417#0 -48202921 -48202929#1 -48202929#0 -48202930 416775490#0 416775490#1 48500734#5 45421576#0 45421576#1 45421576#2"/>
    </vehicle>
    <vehicle id="a2.19" type="auto" depart="108.52" departLane="free">
        <route edges="893257053 -389741418 -47861237 -604749597 410645794 -410645794 -47861236 893252088 49582170 940158936#2 893240697 42201276#0"/>
    </vehicle>
    <vehicle id="a2.20" type="auto" depart="116.59" departLane="free">
        <route edges="893257053 559164160 48147644#0 370601722#0 370601722#1 -47861237 -604749597 -47861236 -47861233 -48202922 -48202923 -389741419 -389741416 -389741417#1 -389741417#0 -48202921 -48202929#1 -48202929#0 492470513#0 492470517 48500733 48500732 48583900 45421576#2"/>
    </vehicle>
    <vehicle id="a2.21" type="auto" depart="121.78" departLane="free">
        <route edges="893257053 -389741418 -47861237 -604749597 410645794 -410645794 604749597 47861237 389741418 60204530"/>
    </vehicle>
    <vehicle id="a2.22" type="auto" depart="128.54" departLane="free">
        <route edges="893257053 -389741418 -47861237 -604749597 410645794 -410645794 604749597 47861237 389741418 60204530"/>
    </vehicle>
    <vehicle id="a2.23" type="auto" depart="158.69" departLane="free">
        <route edges="893257053 -389741418 -47861237 -604749597 -47861236 893252088 186249134 49577311#1 49582171#0 48147644#2 940158936#1 940158936#2 893240697 42201276#0 42201277#3 42201277#4 42201278#1 42201278#2"/>
    </vehicle>
    <vehicle id="a2.24" type="auto" depart="163.02" departLane="free">
        <route edges="893257053 559164160 40972457#0 40972457#1 40972457#2"/>
    </vehicle>
    <vehicle id="a2.25" type="auto" depart="169.47" departLane="free">
        <route edges="893257053 -389741418 -47861237"/>
    </vehicle>
    <vehicle id="a2.26" type="auto" depart="169.75" departLane="free">
        <route edges="893257053 559164160 40972457#0 40972457#1 40972457#2"/>
    </vehicle>
    <vehicle id="a2.27" type="auto" depart="179.52" departLane="free">
        <route edges="893257053 -389741418 -47861237 -604749597 -47861236 893252088 186249134 49577311#1 49582171#0 49582171#1"/>
    </vehicle>
    <vehicle id="a2.28" type="auto" depart="186.01" departLane="free">
        <route edges="893257053 60204530"/>
    </vehicle>
    <vehicle id="a2.29" type="auto" depart="188.13" departLane="free">
        <route edges="893257053 60204530"/>
    </vehicle>
    <vehicle id="a2.30" type="auto" depart="196.41" departLane="free">
        <route edges="893257053 60204530"/>
    </vehicle>
    <vehicle id="a2.31" type="auto" depart="201.67" departLane="free">
        <route edges="893257053 -389741418 -47861237"/>
    </vehicle>
    <vehicle id="a2.32" type="auto" depart="207.72" departLane="free">
        <route edges="893257053 559164160 48147644#0 48147644#1 48147644#2 940158936#1 940158936#2 893240697 42201276#0 42201277#3 42201277#4 42201278#1 42201278#2"/>
    </vehicle>
    <vehicle id="a2.33" type="auto" depart="209.51" departLane="free">
        <route edges="893257053 -389741418 -47861237"/>
    </vehicle>
    <vehicle id="a2.34" type="auto" depart="211.05" departLane="free">
        <route edges="893257053 -389741418 -47861237 -604749597 410645794 -410645794 604749597 893253783 42201281#1 42201281#2 42201276#0 42201276#1 42195044#3 42195044#4 42195044#5 337277984#6 -389741416 118664583#0 118664583#1 118664583#2"/>
    </vehicle>
    <vehicle id="a2.35" type="auto" depart="212.57" departLane="free">
        <route edges="893257053 559164160 48147644#0 48147644#1 49582171#1"/>
    </vehicle>
    <vehicle id="a2.36" type="auto" depart="214.16" departLane="free">
        <route edges="893257053 60204530"/>
    </vehicle>
    <vehicle id="a2.37" type="auto" depart="238.38" departLane="free">
        <route edges="893257053 -389741418 -47861237 -604749597 -47861236 893252088 49582170 940158936#2 893240697 42201276#0 42201276#1 42201276#2 42201276#3"/>
    </vehicle>
    <vehicle id="a2.38" type="auto" depart="289.45" departLane="free">
        <route edges="893257053 559164160 40972457#0 410645790 -410645790 40972457#1 40972457#2"/>
    </vehicle>
    <vehicle id="a2.39" type="auto" depart="311.58" departLane="free">
        <route edges="893257053 559164160 40972457#0 40972457#1 40972457#2"/>
    </vehicle>
    <vehicle id="a2.40" type="auto" depart="315.31" departLane="free">
        <route edges="893257053 60204530"/>
    </vehicle>
    <vehicle id="a2.41" type="auto" depart="319.61" departLane="free">
        <route edges="893257053 -389741418 -47861237 -604749597 410645794 -410645794 604749597 893253783 42201278#0 42201278#1 42195044#1 42492699#1 42201277#4 42201277#5 334968591#1 334968591#2 334968591#3"/>
    </vehicle>
    <vehicle id="a2.42" type="auto" depart="321.07" departLane="free">
        <route edges="893257053 559164160 48147644#0 370601722#0 370601722#1 -47861237 -604749597 -47861236 893252088 49582170 940158936#2 893240697 42201276#0 42201276#1 42195044#3 42195044#4 42195044#5 42195044#6 42195044#7 42195044#8 1023791772 -1023791772 40668087#0 40668087#1 40668087#2 40668087#3 40668087#4 40668087#5"/>
    </vehicle>
    <vehicle id="a2.43" type="auto" depart="322.82" departLane="free">
        <route edges="893257053 559164160 48147644#0 48147644#1 48147644#2 49577311#0 49577311#1 49577311#2 370601722#1 -47861237 -604749597 -47861236 893252088 49582170 940158936#2 893240697 42201276#0 42201276#1 42195044#3 42195044#4 42195044#5 42195044#6 42195044#7 42195044#8 40668087#0 40668087#1 40668087#2 40668087#3 40668087#4 40668087#5"/>
    </vehicle>
    <vehicle id="a2.44" type="auto" depart="325.69" departLane="free">
        <route edges="893257053 -389741418 -47861237 -604749597 410645794 -410645794 604749597 47861237 389741418 60204530"/>
    </vehicle>
    <vehicle id="a2.45" type="auto" depart="345.66" departLane="free">
        <route edges="893257053 60204530"/>
    </vehicle>
    <vehicle id="a2.46" type="auto" depart="352.22" departLane="free">
        <route edges="893257053 -389741418 -47861237 -604749597 -47861236 893252088 186249134 49577311#1 49582171#0 49582171#1"/>
    </vehicle>
    <vehicle id="a2.47" type="auto" depart="352.32" departLane="free">
        <route edges="893257053 -389741418 -47861237 -604749597 410645794 -410645794 604749597 47861237 389741418 60204530"/>
    </vehicle>
    <vehicle id="a2.48" type="auto" depart="353.09" departLane="free">
        <route edges="893257053 -389741418 -47861237 -604749597 -47861236 -47861233 -48202922 -48202923 -389741419 -389741416 118664583#0 118664583#1 118664583#2"/>
    </vehicle>
    <vehicle id="a2.49" type="auto" depart="363.29" departLane="free">
        <route edges="893257053 559164160 40972457#0 410645790 -410645790 40972457#1 40972457#2"/>
    </vehicle>
    <vehicle id="a2.50" type="auto" depart="363.53" departLane="free">
        <route edges="893257053 -389741418 -47861237 -604749597 410645794 -410645794 -47861236 -47861233 -48202922 -48202923 -389741419 -389741416 -389741417#1 -389741417#0 -48202921 -48202929#1 48202929#1 48202921 894151134#0 894151134#1 894151134#2 894151134#3 1023791771#0 1023791771#1 1023791771#2 1023791771#3 1023791771#4 492470513#1"/>
    </vehicle>
    <vehicle id="a2.51" type="auto" depart="368.78" departLane="free">
        <route edges="893257053 60204530"/>
    </vehicle>
    <vehicle id="a2.52" type="auto" depart="370.79" departLane="free">
        <route edges="893257053 60204530"/>
    </vehicle>
    <vehicle id="a2.53" type="auto" depart="381.92" departLane="free">
        <route edges="893257053 -389741418 -47861237 -604749597 410645794 -410645794 -47861236 893252088 49582170 940158936#2 893240697 42201276#0 42201276#1 42195044#3 42195044#4 42141326#2 42141326#3 42141326#4 42141326#5 42141326#6 42141326#7 42141326#8 42141326#9 42141326#10 42141326#11 42141326#12 42141326#13 42141326#14"/>
    </vehicle>
    <vehicle id="a2.54" type="auto" depart="382.76" departLane="free">
        <route edges="893257053 559164160 40972457#0 410645790 -410645790 40972457#1 40972457#2"/>
    </vehicle>
    <vehicle id="a2.55" type="auto" depart="386.17" departLane="free">
        <route edges="893257053 -389741418 -47861237 -604749597 -47861236 -47861233 -48202922 -48202923 -389741419 -389741416 118664583#0 118664583#1 118664583#2"/>
    </vehicle>
    <vehicle id="a2.56" type="auto" depart="397.95" departLane="free">
        <route edges="893257053 60204530"/>
    </vehicle>
    <vehicle id="a2.57" type="auto" depart="398.44" departLane="free">
        <route edges="893257053 -389741418 -47861237 -604749597 410645794 -410645794 604749597 47861237 389741418 60204530"/>
    </vehicle>
    <vehicle id="a2.58" type="auto" depart="400.80" departLane="free">
        <route edges="893257053 -389741418 -47861237 -604749597 410645794 -410645794 -47861236 893252088 49582170 940158936#2 -48202922 -48202923 -389741419 -389741416 118664583#0 49577049#0 49577049#1 311212628#1 42141326#0 42201277#0 -402762621 402762623#0 402762623#1 -402762623#1 -402762623#0 402762621 42201277#1 42143918#12 300069416#0 300069416#1 264394468"/>
    </vehicle>
    <vehicle id="a2.59" type="auto" depart="401.16" departLane="free">
        <route edges="893257053 559164160 40972457#0 410645790 -410645790 40972457#1 40972457#2"/>
    </vehicle>
    <vehicle id="a2.60" type="auto" depart="401.49" departLane="free">
        <route edges="893257053 -389741418 -47861237 -604749597 410645794 -410645794 604749597 47861237 389741418 60204530"/>
    </vehicle>
    <vehicle id="a2.61" type="auto" depart="407.58" departLane="free">
        <route edges="893257053 -389741418 -47861237 -604749597 -47861236 -47861233 -48202922 -48202923 -389741419 -389741416 118664583#0 118664583#1 118664583#2"/>
    </vehicle>
    <vehicle id="a2.62" type="auto" depart="410.68" departLane="free">
        <route edges="893257053 60204530"/>
    </vehicle>
    <vehicle id="a2.63" type="auto" depart="417.29" departLane="free">
        <route edges="893257053 -389741418 -47861237 -604749597 410645794 -410645794 -47861236 -47861233 -48202922 -48202923 -389741419 -389741416 118664583#0 49577049#0 49577049#1 311212628#1 48202923 48202922 893240697 42201276#0 42201276#1 42201276#2 42201276#3"/>
    </vehicle>
    <vehicle id="a2.64" type="auto" depart="423.68" departLane="free">
        <route edges="893257053 559164160 40972457#0 410645790 -410645790 40972457#1 40972457#2"/>
    </vehicle>
    <vehicle id="a2.65" type="auto" depart="424.84" departLane="free">
        <route edges="893257053 60204530"/>
    </vehicle>
    <vehicle id="a2.66" type="auto" depart="425.96" departLane="free">
        <route edges="893257053 -389741418 -47861237 -604749597 -47861236 893252088 49582170 940158936#2 893240697 42201276#0 42201276#1 42195044#3 42195044#4 42195044#5 337277984#6 389741419 42141326#0 42201277#0 -402762621 402762623#0 402762623#1 -402762623#1 -402762623#0 402762621 42201277#1 42201277#2 42201277#3 42201277#4 42201278#1 42201278#2"/>
    </vehicle>
    <vehicle id="a2.67" type="auto" depart="426.92" departLane="free">
        <route edges="893257053 -389741418 -47861237 -604749597 410645794 -410645794 -47861236 893252088 49582170 940158936#2 47861233 47861236 604749597 893253783 42201281#1 42201281#2 42201276#0 42201277#3 42201277#4 42201278#1 42195044#1 42195044#2 42201276#2 42201276#3"/>
    </vehicle>
    <vehicle id="a2.68" type="auto" depart="433.87" departLane="free">
        <route edges="893257053 559164160 40972457#0 410645790 -410645790 40972457#1 40972457#2"/>
    </vehicle>
    <vehicle id="a2.69" type="auto" depart="435.93" departLane="free">
        <route edges="893257053 559164160 40972457#0 40972457#1 40972457#2"/>
    </vehicle>
    <vehicle id="a2.70" type="auto" depart="436.43" departLane="free">
        <route edges="893257053 -389741418 -47861237"/>
    </vehicle>
    <vehicle id="a2.71" type="auto" depart="441.97" departLane="free">
        <route edges="893257053 -389741418 -47861237 -604749597 410645794 -410645794 -47861236 893252088 49582170 940158936#2"/>
    </vehicle>
    <vehicle id="a2.72" type="auto" depart="447.19" departLane="free">
        <route edges="893257053 60204530"/>
    </vehicle>
    <vehicle id="a2.73" type="auto" depart="448.25" departLane="free">
        <route edges="893257053 -389741418 -47861237 -604749597 410645794 -410645794 604749597 893253783 42201278#0 42201277#5 334968591#1 334968591#2 334968591#3"/>
    </vehicle>
    <vehicle id="a2.74" type="auto" depart="476.94" departLane="free">
        <route edges="893257053 -389741418 -47861237 -604749597 410645794"/>
    </vehicle>
    <vehicle id="a2.75" type="auto" depart="491.59" departLane="free">
        <route edges="893257053 559164160 40972457#0 40972457#1 40972457#2"/>
    </vehicle>
    <vehicle id="a2.76" type="auto" depart="494.74" departLane="free">
        <route edges="893257053 -389741418 -47861237 -604749597 410645794 -410645794 604749597 47861237 389741418 60204530"/>
    </vehicle>
    <vehicle id="a2.77" type="auto" depart="506.14" departLane="free">
        <route edges="893257053 559164160 40972457#0 40972457#1 40972457#2"/>
    </vehicle>
    <vehicle id="a2.78" type="auto" depart="542.30" departLane="free">
        <route edges="893257053 559164160 40972457#0 40972457#1 40972457#2"/>
    </vehicle>
    <vehicle id="a2.79" type="auto" depart="555.59" departLane="free">
        <route edges="893257053 -389741418 -47861237 -604749597 410645794"/>
    </vehicle>
    <vehicle id="a2.80" type="auto" depart="557.09" departLane="free">
        <route edges="893257053 -389741418 -47861237 -604749597 410645794 -410645794 604749597 893253783 42201278#0 42201278#1 42195044#1 42195044#2 42195044#3 42143918#11 42143918#12 48202922 893240697 42201276#0"/>
    </vehicle>
    <vehicle id="a2.81" type="auto" depart="558.98" departLane="free">
        <route edges="893257053 -389741418 -47861237 -604749597 -47861236 -47861233 -48202922 300069416#0 300069416#1 300069417#0 300069417#1 49577742"/>
    </vehicle>
    <vehicle id="a2.82" type="auto" depart="568.32" departLane="free">
        <route edges="893257053 559164160 48147644#0 370601722#0 370601722#1 -47861237 -604749597 410645794 -410645794 -47861236 893252088 186249134 49577311#1 49582171#0 49582171#1"/>
    </vehicle>
    <vehicle id="a2.83" type="auto" depart="572.23" departLane="free">
        <route edges="893257053 559164160 40972457#0 410645790 -410645790 40972457#1 40972457#2"/>
    </vehicle>
    <vehicle id="a2.84" type="auto" depart="581.56" departLane="free">
        <route edges="893257053 -389741418 -47861237 -604749597 410645794 -410645794 -47861236 -47861233 -48202922 300069416#0 300069416#1 300069417#0 264396528 -264396528 300069417#1 49577742"/>
    </vehicle>
    <vehicle id="a2.85" type="auto" depart="587.91" departLane="free">
        <route edges="893257053 60204530"/>
    </vehicle>
    <vehicle id="a2.86" type="auto" depart="592.10" departLane="free">
        <route edges="893257053 559164160 40972457#0 40972457#1 40972457#2"/>
    </vehicle>
    <vehicle id="a2.87" type="auto" depart="596.97" departLane="free">
        <route edges="893257053 -389741418 -47861237 -604749597 -47861236 -47861233 -48202922 -48202923 -389741419 -389741416 118664583#0 49577049#0 49577049#1 311212628#1 42141326#0 42141326#1 42195044#5 42195044#6 42195044#7 42195044#8 1023791772 1023791771#0 1023791771#1 1023791771#2 554582109#1 554582109#2 48202921 894151134#0 894151134#1 894151134#2 894151134#3 -1023791772 40668087#0 40668087#1 40668087#2 40668087#3 40668087#4 40668087#5"/>
    </vehicle>
    <vehicle id="a2.88" type="auto" depart="597.95" departLane="free">
        <route edges="893257053 -389741418 -47861237 -604749597 410645794 -410645794 604749597 47861237 389741418 60204530"/>
    </vehicle>
    <vehicle id="a2.89" type="auto" depart="610.28" departLane="free">
        <route edges="893257053 559164160 40972457#0 410645790 -410645790 40972457#1 40972457#2"/>
    </vehicle>
    <vehicle id="a2.90" type="auto" depart="617.57" departLane="free">
        <route edges="893257053 -389741418 -47861237 -604749597 410645794"/>
    </vehicle>
    <vehicle id="a2.91" type="auto" depart="620.30" departLane="free">
        <route edges="893257053 -389741418 -47861237 -604749597 -47861236 -47861233 -48202922 -48202923 -389741419 -389741416 118664583#0 49577049#0 49577049#1 49577049#2 300069416#1 300069417#0 300069417#1 300069417#2 940158936#1 940158936#2 893240697 42201276#0 42201276#1 42201276#2 42201276#3"/>
    </vehicle>
    <vehicle id="a2.92" type="auto" depart="627.48" departLane="free">
        <route edges="893257053 559164160 48147644#0 370601722#0 370601722#1 -47861237 -604749597 410645794 -410645794 604749597 47861237 389741418 60204530"/>
    </vehicle>
    <vehicle id="a2.93" type="auto" depart="628.79" departLane="free">
        <route edges="893257053 60204530"/>
    </vehicle>
    <vehicle id="a2.94" type="auto" depart="634.78" departLane="free">
        <route edges="893257053 559164160 40972457#0 410645790 -410645790 40972457#1 40972457#2"/>
    </vehicle>
    <vehicle id="a2.95" type="auto" depart="652.54" departLane="free">
        <route edges="893257053 -389741418 -47861237 -604749597 410645794 -410645794 604749597 893253783 42201278#0 42201278#1 42195044#1 42195044#2 42201276#2 42201276#3"/>
    </vehicle>
    <vehicle id="a2.96" type="auto" depart="654.29" departLane="free">
        <route edges="893257053 60204530"/>
    </vehicle>
    <vehicle id="a2.97" type="auto" depart="656.16" departLane="free">
        <route edges="893257053 559164160 40972457#0 40972457#1 40972457#2"/>
    </vehicle>
    <vehicle id="a2.98" type="auto" depart="666.67" departLane="free">
        <route edges="893257053 559164160 48147644#0 48147644#1 48147644#2 49577311#0 49577311#1 49582171#0 49582171#1"/>
    </vehicle>
    <vehicle id="a2.99" type="auto" depart="669.55" departLane="free">
        <route edges="893257053 559164160 48147644#0 48147644#1 49582171#1"/>
    </vehicle>
    <vehicle id="a2.100" type="auto" depart="674.42" departLane="free">
        <route edges="893257053 -389741418 -47861237"/>
    </vehicle>
    <vehicle id="a2.101" type="auto" depart="688.48" departLane="free">
        <route edges="893257053 -389741418 -47861237 -604749597 -47861236 -47861233 -48202922 300069416#0 300069416#1 300069417#0 300069417#1 49577742"/>
    </vehicle>
    <vehicle id="a2.102" type="auto" depart="696.11" departLane="free">
        <route edges="893257053 -389741418 -47861237 -604749597 -47861236 -47861233 -48202922 300069416#0 300069416#1 300069417#0 264396528 -264396528 300069417#1 49577742"/>
    </vehicle>
    <vehicle id="a2.103" type="auto" depart="697.79" departLane="free">
        <route edges="893257053 -389741418 -47861237 -604749597 -47861236 -47861233 -48202922 -48202923 -389741419 -389741416 118664583#0 49577049#0 424074247 -424074247 49577049#1 49577049#2 300069416#1 300069417#0 300069417#1 300069417#2 940158936#1 940158936#2 893240697 42201276#0 42201277#3 42201277#4 42201277#5 334968591#1 334968591#2 334968591#3"/>
    </vehicle>
    <vehicle id="a2.104" type="auto" depart="702.02" departLane="free">
        <route edges="893257053 -389741418 -47861237 -604749597 -47861236 893252088 49582170 940158936#2 -48202922 -48202923 -389741419 -389741416 118664583#0 49577049#0 424074247 -424074247 49577049#1 311212628#1 42141326#0 42141326#1 42195044#5 337277984#6 389741419 48202923 48202922 893240697 42201276#0 42201277#3 42201277#4 42201277#5 334968591#1 42201281#0 42201281#1 42492699#4 47861236 604749597 893253783 42201278#0 42201278#1 42201278#2"/>
    </vehicle>
    <vehicle id="a2.105" type="auto" depart="724.95" departLane="free">
        <route edges="893257053 559164160 48147644#0 370601722#0 370601722#1 -47861237 -604749597 410645794 -410645794 604749597 893253783 42201281#1 42201281#2 42201276#0 42201277#3 42201277#4 42201278#1 42201278#2"/>
    </vehicle>
    <vehicle id="a2.106" type="auto" depart="754.69" departLane="free">
        <route edges="893257053 559164160 40972457#0 410645790 -410645790 40972457#1 40972457#2"/>
    </vehicle>
    <vehicle id="a2.107" type="auto" depart="759.36" departLane="free">
        <route edges="893257053 559164160 40972457#0 40972457#1 40972457#2"/>
    </vehicle>
    <vehicle id="a2.108" type="auto" depart="759.41" departLane="free">
        <route edges="893257053 -389741418 -47861237 -604749597 410645794 -410645794 -47861236 893252088 49582170 940158936#2 -48202922 -48202923 -389741419 -389741416 -389741417#1 -389741417#0 -48202921 -48202929#1 -48202929#0 -48202930 416775490#0 416775490#1 48500734#5 45421576#0 45421576#1 45421576#2"/>
    </vehicle>
    <vehicle id="a2.109" type="auto" depart="764.28" departLane="free">
        <route edges="893257053 559164160 40972457#0 410645790 -410645790 40972457#1 40972457#2"/>
    </vehicle>
    <vehicle id="a2.110" type="auto" depart="765.40" departLane="free">
        <route edges="893257053 -389741418 -47861237 -604749597 410645794 -410645794 604749597 47861237 389741418 60204530"/>
    </vehicle>
    <vehicle id="a2.111" type="auto" depart="767.89" departLane="free">
        <route edges="893257053 -389741418 -47861237 -604749597 -47861236 -47861233 -48202922 300069416#0 300069416#1 264394468"/>
    </vehicle>
    <vehicle id="a2.112" type="auto" depart="782.98" departLane="free">
        <route edges="893257053 -389741418 -47861237 -604749597 410645794 -410645794 -47861236 893252088 49582170 940158936#2 -48202922 -48202923 -389741419 -389741416 118664583#0 118664583#1 118664583#2"/>
    </vehicle>
    <vehicle id="a2.113" type="auto" depart="784.00" departLane="free">
        <route edges="893257053 -389741418 -47861237 -604749597 410645794 -410645794 604749597 47861237 389741418 60204530"/>
    </vehicle>
    <vehicle id="a2.114" type="auto" depart="785.27" departLane="free">
        <route edges="893257053 -389741418 -47861237 -604749597 410645794 -410645794 604749597 47861237 389741418 60204530"/>
    </vehicle>
    <vehicle id="a2.115" type="auto" depart="787.08" departLane="free">
        <route edges="893257053 60204530"/>
    </vehicle>
    <vehicle id="a2.116" type="auto" depart="790.51" departLane="free">
        <route edges="893257053 559164160 48147644#0 48147644#1 49582171#1"/>
    </vehicle>
    <vehicle id="a2.117" type="auto" depart="790.89" departLane="free">
        <route edges="893257053 559164160 40972457#0 410645790 -410645790 40972457#1 40972457#2"/>
    </vehicle>
    <vehicle id="a2.118" type="auto" depart="809.06" departLane="free">
        <route edges="893257053 559164160 48147644#0 48147644#1 48147644#2 940158936#1 940158936#2 893240697 42201276#0 42201276#1 42201276#2 42201276#3"/>
    </vehicle>
    <vehicle id="a2.119" type="auto" depart="809.33" departLane="free">
        <route edges="893257053 559164160 48147644#0 370601722#0 370601722#1"/>
    </vehicle>
    <vehicle id="a2.120" type="auto" depart="809.38" departLane="free">
        <route edges="893257053 -389741418 -47861237 -604749597 -47861236 -47861233 -48202922 -48202923 -389741419 -389741416 118664583#0 49577049#0 49577049#1 311212628#1 48202923 48202922 47861233 47861236 604749597 47861237 389741418 60204530"/>
    </vehicle>
    <vehicle id="a2.121" type="auto" depart="819.88" departLane="free">
        <route edges="893257053 -389741418 -47861237 -604749597 410645794 -410645794 604749597 893253783 42201281#1 42492699#4 893252088 49582170 940158936#2 893240697 42201276#0"/>
    </vehicle>
    <vehicle id="a2.122" type="auto" depart="833.34" departLane="free">
        <route edges="893257053 559164160 40972457#0 410645790 -410645790 40972457#1 40972457#2"/>
    </vehicle>
    <vehicle id="a2.123" type="auto" depart="835.99" departLane="free">
        <route edges="893257053 559164160 40972457#0 410645790 -410645790 40972457#1 40972457#2"/>
    </vehicle>
    <vehicle id="a2.124" type="auto" depart="836.65" departLane="free">
        <route edges="893257053 559164160 40972457#0 410645790 -410645790 40972457#1 40972457#2"/>
    </vehicle>
    <vehicle id="a2.125" type="auto" depart="842.52" departLane="free">