<?xml version="1.0" encoding="UTF-8"?>

<!-- generated on 2024-07-04 08:33:29.201449 by randomTrips.py v1_19_0+1520-dc4640af2ac
<configuration>
    <net-file value="huaynacapac.net.xml"/>
    <route-file value="mapa.rou.xml"/>
    <verbose value="True"/>
    <period value="36.0"/>
</configuration>
-->

<routes xmlns:xsi="http://www.w3.org/2001/XMLSchema-instance" xsi:noNamespaceSchemaLocation="http://sumo.dlr.de/xsd/routes_file.xsd">
    <trip id="0" depart="0.00" from="45421575#1" to="-389741419"/>
    <trip id="1" depart="36.00" from="337277984#6" to="337277984#2"/>
    <trip id="2" depart="72.00" from="48501815#0" to="48147644#0"/>
    <trip id="3" depart="108.00" from="554582109#2" to="-604749597"/>
    <trip id="4" depart="144.00" from="42141326#4" to="-402762621"/>
    <trip id="5" depart="180.00" from="311212628#1" to="42195044#1"/>
    <trip id="6" depart="216.00" from="-389741418" to="334968130#1"/>
    <trip id="7" depart="252.00" from="45421576#0" to="42201276#1"/>
    <trip id="8" depart="288.00" from="311212628#1" to="42201278#0"/>
    <trip id="9" depart="324.00" from="492470513#0" to="-389741416"/>
    <trip id="10" depart="360.00" from="492443599#1" to="48202925#0"/>
    <trip id="11" depart="396.00" from="40668087#0" to="300069416#0"/>
    <trip id="12" depart="432.00" from="893253783" to="40668087#5"/>
    <trip id="13" depart="468.00" from="-48202922" to="-972644144#1"/>
    <trip id="14" depart="504.00" from="542434369#0" to="42201281#1"/>
    <trip id="15" depart="540.00" from="492470513#0" to="48500733"/>
    <trip id="16" depart="576.00" from="42195044#7" to="894151134#0"/>
    <trip id="17" depart="612.00" from="416775490#1" to="42201276#2"/>
    <trip id="18" depart="648.00" from="49577049#1" to="42492699#1"/>
    <trip id="19" depart="684.00" from="542434369#3" to="42201277#4"/>
    <trip id="20" depart="720.00" from="48202925#1" to="-47861236"/>
    <trip id="21" depart="756.00" from="334968130#1" to="399285450#0"/>
    <trip id="22" depart="792.00" from="-47861236" to="337277984#5"/>
    <trip id="23" depart="828.00" from="-48202929#0" to="398532019#1"/>
    <trip id="24" depart="864.00" from="45421575#1" to="410645792"/>
    <trip id="25" depart="900.00" from="410645791" to="334968591#2"/>
    <trip id="26" depart="936.00" from="337277984#4" to="604749597"/>
    <trip id="27" depart="972.00" from="45421575#3" to="42201281#2"/>
    <trip id="28" depart="1008.00" from="118664583#1" to="48500733"/>
    <trip id="29" depart="1044.00" from="118664583#0" to="416775490#0"/>
    <trip id="30" depart="1080.00" from="940158936#2" to="45421575#2"/>
    <trip id="31" depart="1116.00" from="42201276#2" to="48202921"/>
    <trip id="32" depart="1152.00" from="49582170" to="48909342#1"/>
    <trip id="33" depart="1188.00" from="334968130#1" to="-402762623#0"/>
    <trip id="34" depart="1224.00" from="398532019#1" to="389741418"/>
    <trip id="35" depart="1260.00" from="305214684" to="65107406#1"/>
    <trip id="36" depart="1296.00" from="547510537" to="40668087#0"/>
    <trip id="37" depart="1332.00" from="45421576#1" to="42141326#10"/>
    <trip id="38" depart="1368.00" from="559910546#3" to="42143918#10"/>
    <trip id="39" depart="1404.00" from="337277984#3" to="370601722#1"/>
    <trip id="40" depart="1440.00" from="42201277#0" to="389741417#1"/>
    <trip id="41" depart="1476.00" from="42201277#5" to="559164160"/>
    <trip id="42" depart="1512.00" from="42141326#11" to="337277984#2"/>
    <trip id="43" depart="1548.00" from="972644144#1" to="42195044#2"/>
    <trip id="44" depart="1584.00" from="-48202922" to="-47861236"/>
    <trip id="45" depart="1620.00" from="-48202930" to="42492699#3"/>
    <trip id="46" depart="1656.00" from="48909342#4" to="42141326#3"/>
    <trip id="47" depart="1692.00" from="-410645794" to="416775490#1"/>
    <trip id="48" depart="1728.00" from="972644144#1" to="42195044#6"/>
    <trip id="49" depart="1764.00" from="894151134#1" to="518706138#1"/>
    <trip id="50" depart="1800.00" from="-389741416" to="48202933"/>
    <trip id="51" depart="1836.00" from="48201047" to="42195044#8"/>
    <trip id="52" depart="1872.00" from="337277984#4" to="45421575#2"/>
    <trip id="53" depart="1908.00" from="-48202930" to="42141326#6"/>
    <trip id="54" depart="1944.00" from="42143918#1" to="893240697"/>
    <trip id="55" depart="1980.00" from="547510537" to="389741417#1"/>
    <trip id="56" depart="2016.00" from="42143918#9" to="305214684"/>
    <trip id="57" depart="2052.00" from="559910546#2" to="542434369#2"/>
    <trip id="58" depart="2088.00" from="389741417#1" to="45421575#2"/>
    <trip id="59" depart="2124.00" from="42492699#0" to="300069416#0"/>
    <trip id="60" depart="2160.00" from="48583900" to="42195044#8"/>
    <trip id="61" depart="2196.00" from="48909342#1" to="42195044#6"/>
    <trip id="62" depart="2232.00" from="-1023791772" to="40668087#2"/>
    <trip id="63" depart="2268.00" from="-389741417#1" to="60204530"/>
    <trip id="64" depart="2304.00" from="552651836" to="49577049#2"/>
    <trip id="65" depart="2340.00" from="389741419" to="-48202921"/>
    <trip id="66" depart="2376.00" from="547510537" to="65107406#2"/>
    <trip id="67" depart="2412.00" from="-48202921" to="42143918#5"/>
    <trip id="68" depart="2448.00" from="-424074247" to="48583899#1"/>
    <trip id="69" depart="2484.00" from="48866096" to="118664583#0"/>
    <trip id="70" depart="2520.00" from="42143918#3" to="42201276#2"/>
    <trip id="71" depart="2556.00" from="337277984#3" to="542434369#3"/>
    <trip id="72" depart="2592.00" from="42141326#4" to="334968591#3"/>
    <trip id="73" depart="2628.00" from="42195044#7" to="48500733"/>
    <trip id="74" depart="2664.00" from="300069417#2" to="402762623#1"/>
    <trip id="75" depart="2700.00" from="972644144#0" to="45421576#0"/>
    <trip id="76" depart="2736.00" from="42141326#8" to="42195044#3"/>
    <trip id="77" depart="2772.00" from="-49578956" to="337277984#3"/>
    <trip id="78" depart="2808.00" from="40668087#0" to="42201278#0"/>
    <trip id="79" depart="2844.00" from="334968591#0" to="337277984#2"/>
    <trip id="80" depart="2880.00" from="-424074247" to="42492699#4"/>
    <trip id="81" depart="2916.00" from="334968130#1" to="559910546#0"/>
    <trip id="82" depart="2952.00" from="542434369#2" to="-48202929#0"/>
    <trip id="83" depart="2988.00" from="334968591#1" to="47861236"/>
    <trip id="84" depart="3024.00" from="311212628#0" to="118664583#1"/>
    <trip id="85" depart="3060.00" from="65107406#0" to="42201277#2"/>
    <trip id="86" depart="3096.00" from="42143918#2" to="48909342#3"/>
    <trip id="87" depart="3132.00" from="492470513#0" to="311212628#1"/>
    <trip id="88" depart="3168.00" from="-48202923" to="42141326#5"/>
    <trip id="89" depart="3204.00" from="42141326#5" to="42143918#12"/>
    <trip id="90" depart="3240.00" from="48500732" to="47861237"/>
    <trip id="91" depart="3276.00" from="940158936#1" to="1023791771#0"/>
    <trip id="92" depart="3312.00" from="42141326#12" to="40972457#0"/>
    <trip id="93" depart="3348.00" from="542434369#3" to="370601722#1"/>
    <trip id="94" depart="3384.00" from="300069417#0" to="42141326#9"/>
    <trip id="95" depart="3420.00" from="42141326#4" to="398532019#1"/>
    <trip id="96" depart="3456.00" from="337277984#0" to="559910546#4"/>
    <trip id="97" depart="3492.00" from="42141326#9" to="518706138#1"/>
    <trip id="98" depart="3528.00" from="42201276#1" to="-47861237"/>
    <trip id="99" depart="3564.00" from="972644144#1" to="49577311#2"/>
</routes>
