<?xml version="1.0" encoding="UTF-8"?>

<!-- generated on 2024-05-09 09:40:45.330673 by randomTrips.py v1_19_0+1520-dc4640af2ac
<configuration>
    <net-file value="mapa.net.xml"/>
    <route-file value="mapa.rou.xml"/>
    <verbose value="True"/>
    <period value="1.25"/>
</configuration>
-->

<!-- generated on 2024-05-09 09:40:44 by Eclipse SUMO duarouter Version v1_19_0+1520-dc4640af2ac
<configuration xmlns:xsi="http://www.w3.org/2001/XMLSchema-instance" xsi:noNamespaceSchemaLocation="http://sumo.dlr.de/xsd/duarouterConfiguration.xsd">

    <input>
        <net-file value="mapa.net.xml"/>
        <route-files value="trips.trips.xml"/>
    </input>

    <output>
        <output-file value="mapa.rou.xml"/>
        <alternatives-output value="NUL"/>
    </output>

    <time>
        <begin value="0.0"/>
        <end value="3600.0"/>
    </time>

    <report>
        <verbose value="true"/>
        <ignore-errors value="true"/>
        <no-step-log value="true"/>
    </report>

</configuration>
-->

<routes xmlns:xsi="http://www.w3.org/2001/XMLSchema-instance" xsi:noNamespaceSchemaLocation="http://sumo.dlr.de/xsd/routes_file.xsd">
    <!-- <vehicle id="0" depart="0.00">
        <route edges="45427996#1 -45427996#1 -86484908#1 -86484908#0 264452213#8 264452213#9 264452213#10 264452213#11 264452213#12 264452213#13 264452213#14 264452213#15 306725304#0 306725304#1 306725304#2 542406425#0 542406425#1 542406425#2 -310108973#2 -310108973#1 -310108973#0"/>
    </vehicle> 
    -->
    
    <vehicle id="1" depart="0.00">
        <route edges="523917171#0 523917171#1 400008031#3 400008031#4 404425499#1 404425499#2 249653688 47861234#0 47861234#1 336149058 336149056 542398110 334968133#1 303119548 42453883#2 42453883#3 42453883#4 42453883#5 42453883#6 42453883#7 42453883#8 542406432 264452213#1 264452213#2"/>
    </vehicle>
    
    <vehicle id="2" depart="2.00">
        <route edges="523917171#0 523917171#1 400008031#3 400008031#4 404425499#1 404425499#2 249653688 47861234#0 47861234#1 336149058 336149056 542398110 334968133#1 303119548 42453883#2 42453883#3 42453883#4 42453883#5 42453883#6 42453883#7 42453883#8 542406432 264452213#1 264452213#2"/>
    </vehicle>
    
    <vehicle id="3" depart="5.00">
        <route edges="523917171#0 523917171#1 400008031#3 400008031#4 404425499#1 404425499#2 249653688 47861234#0 47861234#1 336149058 336149056 542398110 334968133#1 303119548 42453883#2 42453883#3 42453883#4 42453883#5 42453883#6 42453883#7 42453883#8 542406432 264452213#1 264452213#2"/>
    </vehicle>
    
    <!--
    <vehicle id="1" depart="1.25">
        <route edges="523917171#2 400008031#2 400008031#1404425499#0 404425499#1 404425499#2 249653688 47861234#0 47861234#1 336149058 336149056 542398110 334968133#1 303119548 42453883#2 42453883#3 42453883#4 42453883#5 42453883#6 42453883#7 42453883#8 542406432 264452213#1 264452213#2"/>
    </vehicle>
    
   
    <vehicle id="2" depart="2.50">
        <route edges="48548049 48548050 -48548050 -48548049 542406428#1 542406428#2 542406428#3 542406424#0 542406424#1 542406427#0 542406427#1 542406427#2 542406426#0 542406426#1 542406426#2 552506217#0 552506217#1 552506217#2 48859291#0 48859291#1 -269103122#0 549778901#0 269102410#0 269102410#1 269102410#2 269102410#3 269102410#4 269102410#5 269102410#6 269103111#4 269103111#5 40972460#2 40972460#3 40972460#4 40972462#0 40972462#1 552619454 48859314#0 48859314#1 48859314#2 48859314#3 48859314#4 48859314#5 48859314#6 48859314#7 48859314#8 408713354 334948974#9 542402347#0 542402347#1 542402347#2 -475886424 475886424"/>
    </vehicle>
    
    -->
    
    <vehicle id="4" depart="5.00">
        <route edges="400908320#0 400908320#1 542393509#1 553331428 542393635#0 542393635#1 542393801 553331426 250130982#0 250130982#1 408713356 40972460#8 40972460#1 40972460#2 406209023 42136870 400017957 400017955 42136869#0 334948975#0 334948975#1 334948975#2 334948975#3 334948975#4 334948975#5 334948975#6 334948975#7 336149056 542398110 334968133#1 303119548 42453883#2 42453883#3 42453883#4 48853354#0 48853354#1 42201274 400014567 334968591#0 334968591#1 334968591#2 334968591#3 893257053 -389741418 -47861237 -604749597 -47861236 -47861233 -48202922 300069416#0 300069416#1 300069417#0 300069417#1 49577742#0 -311412765"/>
    </vehicle>
    <vehicle id="5" depart="6.25">
        <route edges="249653686#3 46309326#0 46309326#1 46309326#2 46309326#3 48548077 46309330#0 46309330#1 46309330#2 47861234#0 47861234#1 336149058 336149056 542398110 334968133#1 303119548 42453883#2 42453883#3 42453883#4 48853354#0 48853354#1 42201274 48853357#1 -400014566 -42201282#1 -42201282#0 42190860 42201279#0 42201279#1 42143918#10 42143918#11 42143918#12 42143918#13 42143918#14 42143918#15 42143918#16"/>
    </vehicle>
    <vehicle id="6" depart="7.50">
        <route edges="-269103122#3 -269103122#2 -269103122#1 -269103122#0 549778901#0 250024018#0 250024018#1"/>
    </vehicle>
    <vehicle id="7" depart="8.75">
        <route edges="45429543#0 42201276#8 42201276#9 492471759#5 492471759#6 49222366#5 49222366#6 49222366#7 49222366#8 49222366#9 42190860 42201279#0"/>
    </vehicle>
    <vehicle id="8" depart="10.00">
        <route edges="249653687 -269103122#4 -269103122#3 -269103122#2 -269103122#1 -269103122#0 549778901#0 269102410#0 269102410#1 269102410#2 269102410#3 269102410#4 269102410#5 269102410#6 269103111#4 269103111#5 40972460#2 40972460#3 40972460#4 40972462#0 40972462#1 552619454 48859314#0 48859314#1 48859314#2 48859314#3 48859314#4 48859314#5 48859314#6 338566776 523917173 -62202963 62202962 45393798#3 401115736#0 401115736#1 267553754#0 267553754#1 447252437"/>
    </vehicle>
    <vehicle id="9" depart="11.25">
        <route edges="49222366#7 49222366#8 49222366#9 42201282#0 42201282#1 400014566 48853358 42201275#0 42201275#1 42453883#6 42453881#0 42453881#1 338426548 542407414#0 45429541#0 45429541#1 47198312 42136872#1 42136872#2 42136872#3 42136872#4 893216335#0 893216335#1 893216335#2 549772919#0 549772919#1 549772919#2 549772919#3 400017962 252225176#0 252225176#1 552619450 552619451#0 552619451#1 552619451#2 40972460#6 400017959 40972461#0 40972461#1 40972461#2 553331425 400017961 -248268266#5 -248268266#4 -248268266#3 -248268266#2 -248268266#1"/>
    </vehicle>
    <vehicle id="10" depart="12.50">
        <route edges="49222366#3 49222366#4 49222366#5 49222366#6 49222366#7 49222366#8 49222366#9 42201282#0 42201282#1 400014566 48853358 42201275#0 42201275#1 42453883#6 42453883#7 42453883#8 542406432 42453882#0 42453882#1 42453882#2 42453882#3 42453882#4 42453882#5 542406433#1 542406433#2 42141924#4 42141924#5 306730606#0 306730606#1 306730606#2 306730606#3 306730606#4 306730606#5 306730606#6 48537822"/>
    </vehicle>
    <vehicle id="11" depart="13.75">
        <route edges="334948976#1 50123512 48100787 604749592 42454303#0 42454303#1 992235860 -992235860 -42454303#1 -42454303#0 -604749592"/>
    </vehicle>
    <vehicle id="12" depart="15.00">
        <route edges="60204532#0 334968122#2 42453873 -50123512 -50123511 -60204533 -50123510 -60204530#2 -60204530#1 -60204530#0 -389741418 -47861237 -604749597 -47861236 893252088 49582170 940158936#3 893240697 42201276#0 42201276#1 42195044#5 42195044#6 42195044#7 42195044#8 337277984#8"/>
    </vehicle>
    <vehicle id="13" depart="16.25">
        <route edges="-424074247 49577049#1 49577049#2 300069416#1 300069417#0 300069417#1 300069417#2 49577311#0 49577311#1 49577311#2 370601722#1 -47861237"/>
    </vehicle>
    <vehicle id="14" depart="17.50">
        <route edges="534903531#2 248268266#0 248268266#1 248268266#2 248268266#3 45393772#1 45393772#2 45393772#3"/>
    </vehicle>
    <vehicle id="15" depart="18.75">
        <route edges="49222366#5 49222366#6 49222366#7 49222366#8 49222366#9 42201282#0 42201282#1 400014566 48853358 42201275#0 42201275#1 42453883#6 42453883#7 42453883#8 42453883#9 303119549 400262213#0 400262213#1 -334968133#1 -334968133#0 -336149056 -336149058 -47861234#1 -47861234#0 45427992#0 45427992#1 249653687 -269103122#4 -269103122#3 -269103122#2 -269103122#1 -269103122#0 42143234#2 42143234#3 42143234#4 306725312 542406430#0 542406430#1 542406430#2 -48548000#1 -48548000#0 48548033#2"/>
    </vehicle>
    <vehicle id="16" depart="20.00">
        <route edges="42201276#0 42201276#1 42201276#2 42201276#3 42201276#4 42201276#5 42201276#6 554582106#8 49222366#8 49222366#9 42201282#0 42201282#1 400014566 48853358 42201275#0 42201275#1 42453883#6 42453883#7 42453883#8 542406432 264452213#1 264452213#2 264452213#3 264452213#4 264452213#5 264452213#6 264452213#7 86484908#0"/>
    </vehicle>
    <vehicle id="17" depart="21.25">
        <route edges="340205160#1 340205160#2 -340205160#2 -340205160#1 46309326#2 46309326#3 48548077 46309330#0 46309330#1 46309330#2 47861234#0 47861234#1 336149058 336149056 542398110 334968133#1 303119548 42453883#2 42453883#3 42453883#4 48853354#0 48853354#1 42201274 48853357#1 -400014566 -42201282#1 -42201282#0 42201282#0"/>
    </vehicle>
    <vehicle id="18" depart="22.50">
        <route edges="509965321#0 -509965321#0 -48860950#2 -48860950#1 -48860950#0 -402940390 42454301#4 542407411 542407410#0 542407410#1 269103109 45424962#7 895065309 269103111#0 -42143233#0 400006773#0 400006773#1 400006773#2 248268266#2 248268266#3 45393772#1 45393772#2 45393814#0 45393814#1"/>
    </vehicle>
    <vehicle id="19" depart="23.75">
        <route edges="542397044#3 542397044#4 40972481#1 338566775#0 338566775#1 338566775#2 338566775#3 338566775#4 333015831#0 333015831#1 400017954 338426546 400017963#0 400017963#1 306730606#0 306730606#1 306730606#2 306730606#3 306730606#4 306730606#5 306730606#6 306730606#7 333370737#0 333370737#1 549772917 42453883#8 42453883#9 42453883#1 42453883#2 42453883#3 42453883#4 48853354#0 48853354#1 42201274 400014567 334968591#0 334968591#1 334968591#2 334968591#3 893257053 60204530#0 60204530#1 60204530#2 50123510 60204533 50123511 50123512 48100787 604749592 42454303#0"/>
    </vehicle>
    <vehicle id="20" depart="25.00">
        <route edges="48547986#1 48547986#2 48547986#3 404425499#0 404425499#1 404425499#2 249653688 47861234#0 47861234#1 336149058 336149056 542398110 334968133#1 303119548 42453883#2 42453883#3 42453883#4 48853354#0 48853354#1 42201274 400014567 334968591#0 334968591#1 334968591#2 334968591#3 893257053 -389741418 -47861237 -604749597 -47861236 -47861233 -48202922 -48202923 -389741419 -389741416 -389741417"/>
    </vehicle>
    <vehicle id="21" depart="26.25">
        <route edges="250033168#4 48547986#3 269103122#3 48547994#0 48547994#1 1006284719 48548056#2 48548056#3 48548052 542406424#0 542406424#1 -542406429 -310108973#2 310108973#2"/>
    </vehicle>
    <vehicle id="22" depart="27.50">
        <route edges="-405030856 534903531#2 248268266#0 248268266#1 248268266#2 248268266#3 248268266#4 248268266#5 -400017961 -45393762#4 -45393762#3 -45393762#2 -45393762#1 -45393762#0 -406209024 62202962 45393798#3 401115736#0 401115736#1 267553755"/>
    </vehicle>
    <vehicle id="23" depart="28.75">
        <route edges="-45393762#4 -45393762#3 45393762#3 45393762#4 400017961 250130982#0 250130982#1 408713356 40972460#8 40972460#1 40972460#2 406209023 42136870 400017957 893234901 893234900 42143234#0 42143234#1 42143234#2 42143234#3 42143234#4 306725312 306725311#0 306725311#1 306725311#2"/>
    </vehicle>
    <vehicle id="24" depart="30.00">
        <route edges="45427994#0 45427994#1 45427994#2 -269103122#5 -269103122#4 -269103122#3 -269103122#2 -269103122#1 48859291#2 48859291#3 48859311 48859295#1 48859295#2 42141924#0 42141924#1 334948975#2 395441547"/>
    </vehicle>
    <vehicle id="25" depart="31.25">
        <route edges="338566776 338566775#1 338566775#2 338566775#3 338566775#4 338566775#5 338566775#6 552619450 552619451#0 552619451#1 552619451#2 40972460#6 40972460#7 40972460#8 40972460#1 40972460#2 406209023 42136870 400017957 893234901 893234900 42143234#0 42143234#1 269103122#0 269103122#1 269103122#2 269103122#3 269103122#4 269103122#5 -45427994#2 -45427994#1 -45427994#0 250051647#3 250051647#4"/>
    </vehicle>
    <vehicle id="26" depart="32.50">
        <route edges="269103111#1 269103111#2-AddedOnRampEdge 269103111#2 269103111#3 269103111#4 269103111#5 40972460#2 406209023 42136870 400017957 400017955 42136869#0 334948975#0 334948975#1 334948975#2 334948975#3 334948975#4 334948975#5 334948975#6 334948975#7 336149056 542398110 334968133#1 303119548 42453883#2 42453883#3 42453883#4 48853354#0 48853354#1 42201274 48853357#1 -400014566 -42201282#1 -42201282#0 42190860 42201279#0 42201279#1 42201279#2 42201279#3 42141326#7 42141326#8 554582106#4"/>
    </vehicle>
    <vehicle id="27" depart="33.75">
        <route edges="45429540#1 48859314#3 48859314#4 48859314#5 48859314#6 338566776 523917173 -62202963 62202962 45393798#3 49223920 548211922 48859299 523917171#0 523917171#1 523917171#2 523917171#3 408713350 48859304#0 48859304#1 48859304#2 45393784#0"/>
    </vehicle>
    <vehicle id="28" depart="35.00">
        <route edges="-509965321#0 48860950#3 48860950#4 48860950#5 48860950#6 48548033#1"/>
    </vehicle>
    <vehicle id="29" depart="36.25">
        <route edges="-48860950#3 -48860950#2 -48860950#1 -48860950#0 -402940390 42454301#4 542407411 542407410#0 542407410#1 269103109 45424962#7 895065309 269103111#0 269103111#1 269103111#2-AddedOnRampEdge 269103111#2 269103111#3 269103111#4 269103111#5 40972460#2 40972460#3 40972460#4 40972462#0 40972462#1 552619454 252225176#0 252225176#1 552619450 552619451#0 400008031#0"/>
    </vehicle>
    <vehicle id="30" depart="37.50">
        <route edges="893253783 42201281#1 42492699#7 47861236 604749597 47861237 389741418 60204530#0 60204530#1 60204530#2 50123510 60204533 50123511 50123512 48100787 604749592 42454303#0 42454303#1 992235860 402178667#0 402178667#1 -329243314#1 -329243314#0 -402178665 -400015744#0 402179134 42453885 42136872#0 42136872#1 42136872#2 42136872#3 42136872#4 893216335#0 893216335#1 893216335#2 549772919#0 549772919#1 549772919#2 549772919#3 400017962 48859314#0 48859314#1 48859314#2 48859314#3 45429539#0 45429539#1 45429539#2 45429539#3 45429539#4 45429539#5"/>
    </vehicle>
    <vehicle id="33" depart="41.25">
        <route edges="250051647#0 250051647#1 250051647#2 45427994#0 45427994#1 45427994#2 -269103122#5 -269103122#4 -269103122#3 404425499#0 404425499#1 404425499#2 249653688 47861234#0 47861234#1 336149058 336149056 542398110 334968133#1 303119548 42453883#2 42453883#3 42453883#4 42453883#5 42453883#6 42453883#7 42453883#8 42453883#9 303119549 400262213#0 400262213#1 -334968133#1 -334968133#0"/>
    </vehicle>
    <vehicle id="34" depart="42.50">
        <route edges="311212628#1 -389741419 -389741416 118664583#0 49577049#0 49577049#1 49577049#2 300069416#1"/>
    </vehicle>
    <vehicle id="35" depart="43.75">
        <route edges="248268266#2 248268266#3 248268266#4 248268266#5 250130982#0 250130982#1 408713356 40972460#8 40972460#1 40972460#2 406209023 42136870 400017957 400017955 42136869#0 334948975#0 334948975#1 334948975#2 334948975#3 334948975#4 334948975#5 334948975#6 334948975#7 336149056 542398110 334968133#1 303119548 42453883#2 42453883#3 42453883#4 48853354#0 48853354#1 42201274 48853357#1 -400014566 -42201282#1 -42201282#0 42190860 42492699#0 554582108#10 554582108#11"/>
    </vehicle>
    <vehicle id="36" depart="45.00">
        <route edges="542406425#0 542406425#1 542406425#2 542406429 542406427#0 542406427#1 542406427#2 542406426#0 542406426#1 542406426#2 552506217#0 552506217#1 552506217#2 48859291#0 48859291#1 48859291#2 48859291#3 48859311 48859295#1 48859295#2 42141924#0 42141924#1 334948975#2 334948975#3 334948975#4 334948975#5 334948975#6"/>
    </vehicle>
    <vehicle id="37" depart="46.25">
        <route edges="45429545#1 45429545#2 45429545#3 45429545#4 45429545#5 549772919#3 400017962 252225176#0 333015831#1 400017954 338426546 400017963#0"/>
    </vehicle>
    <vehicle id="38" depart="47.50">
        <route edges="549778901#5 -42143233#1 269103111#1 269103111#2-AddedOnRampEdge 269103111#2 269103111#3 269103111#4 269103111#5 40972460#2 40972460#3 40972460#4 40972462#0 40972462#1 552619454 48859314#0 48859314#1 48859314#2 48859314#3 48859314#4 48859314#5 48859314#6 48859314#7 48859314#8 408713354 334948974#9 542402347#0 40972481#0 40972481#1"/>
    </vehicle>
    <vehicle id="39" depart="48.75">
        <route edges="269103108#1 893228190#0 893228190#1 48859294 893228189 42454301#0 42454301#1 42454301#2 42454301#3 42454301#4 542407411 542407410#0 542407410#1 269103109 45424962#7 895065309 269103111#0 269103111#1 269103111#2-AddedOnRampEdge 269103111#2"/>
    </vehicle>
    <vehicle id="40" depart="50.00">
        <route edges="42201281#2 42201276#0 42201276#1 42201276#2 42201276#3 42201276#4 42201276#5 42201276#6 554582106#8 49222366#8 49222366#9 42201282#0 42201282#1 400014566 48853358 42201275#0 42201275#1 42453883#6 42453883#7 42453883#8 42453883#9 303119549 400262213#0 400262213#1 -334968133#1 -334968133#0 -336149056 -336149058 -47861234#1 -47861234#0 45427992#0 45427992#1 249653687 -269103122#4 -269103122#3 -269103122#2 -269103122#1 -269103122#0 549778901#0 269102410#0 269102410#1 269102410#2 269103125#4"/>
    </vehicle>
    <vehicle id="41" depart="51.25">
        <route edges="42454303#0 42454303#1 992235860 402178667#0 402178667#1 -329243314#1 -329243314#0 -402178665 -400015744#0 402179134 42453885 42136872#0 42136872#1 42136872#2 42136872#3 42136872#4 893216335#0 893216335#1 893216335#2 549772919#0 549772919#1 549772919#2 549772919#3 400017962 252225176#0 252225176#1 552619450 552619451#0 552619451#1 552619451#2 40972460#6 40972460#7 40972460#8 40972463#0 40972463#1 40972463#2 40972463#3 40972463#4 40972463#5 40972463#6 40972463#7 45424962#1 45424962#2 45424962#3 45424962#4 45424962#5 45424964 542407413"/>
    </vehicle>
    <vehicle id="42" depart="52.50">
        <route edges="400008031#0 400008031#1 45393762#3 45393762#4 400017961 250130982#0 250130982#1 408713356 40972460#8 40972460#1 40972460#2 406209023 42136870 400017957 893234901 893234900 42143234#0 42143234#1 269103122#0 269103122#1 264452213#10 264452213#11"/>
    </vehicle>
    <vehicle id="43" depart="53.75">
        <route edges="992235860 402178667#0 402178667#1 -329243314#1 -329243314#0 -402178665 -400015744#0 402179134 46309331#0 46309331#1 42453883#4 48853354#0 48853354#1 42201274 48853357#1 -400014566 -42201282#1 -42201282#0 42190860 42201279#0 42201279#1 42201279#2 42201279#3 42141326#7 42141326#8 42141326#9 42141326#10 42141326#11 492471759#3 42143918#6"/>
    </vehicle>
    <vehicle id="44" depart="55.00">
        <route edges="-42143233#1 269103111#1 269103111#2-AddedOnRampEdge 269103111#2 269103111#3 269103111#4 269103111#5 40972460#2 406209023 42136870 400017957 400017955 42136869#0 334948975#0 334948975#1 334948975#2 334948975#3 334948975#4 334948975#5 334948975#6 334948975#7 336149056 542398110 334968133#1 303119548 42453883#2 42453883#3 42453883#4 48853354#0 48853354#1 42201274 400014567 334968591#0 334968591#1 334968591#2 334968591#3 893257053 -389741418 -47861237 -604749597 -47861236 -47861233 -48202922 -48202923 -389741419"/>
    </vehicle>
    <vehicle id="45" depart="56.25">
        <route edges="-45428000 250024018#1 42454301#3 -1100972781 -45427986 -549778901#1 -549778901#0 269103122#0 269103122#1 269103122#2 404425499#0 404425499#1 404425499#2 249653688 45427992#0"/>
    </vehicle>
    <vehicle id="46" depart="57.50">
        <route edges="48860950#1 -48860950#1 -48860950#0 -402940390 -1100972781 -45427986 -549778901#1 -549778901#0 269103122#0 269103122#1 269103122#2 404425499#0 404414857"/>
    </vehicle>
    <vehicle id="47" depart="58.75">
        <route edges="-398051548#1 -398051548#0 45429539#6 45429545#5 549772919#3 400017962 252225176#0 252225176#1 552619450 552619451#0 400008031#0 400008031#1 400008031#2 400008031#3"/>
    </vehicle>
    <vehicle id="48" depart="60.00">
        <route edges="940158936#2 940158936#3 893240697 42201276#0 42201276#1 42201276#2"/>
    </vehicle>
    <vehicle id="49" depart="61.25">
        <route edges="84860607#0 84860607#1 -48549795 -641640490 -340205160#2 -340205160#1 46309326#2 46309326#3 48548077 46309330#0 46309330#1 46309330#2 47861234#0 47861234#1 336149058 336149056 542398110 334968133#1 303119548 42453883#2 42453883#3 42453883#4 42453883#5 42453883#6 42453881#0 42453881#1 338426548 542407414#0 542407414#1 334948974#0 334948974#1 334948974#2 334948974#3 334948974#4 334948974#5 334948974#6 334948974#7 334948974#8 334948974#9 542402347#0 542402347#1 542402347#2 542402347#3 542402347#4 -475886423 475886425#4 542397044#0 542397044#1"/>
    </vehicle>
    <vehicle id="50" depart="62.50">
        <route edges="-248268266#2 -248268266#1 -248268266#0 -311202507#1 -311202507#0 427931812 45424962#3 45424962#4 45424962#5 45424964 542407413 48547993#0 48547993#1 48548017 48548018#1"/>
    </vehicle>
    <vehicle id="51" depart="63.75">
        <route edges="475886425#1 475886425#2 475886425#3 475886425#4 542397044#0 542397044#1 542397044#2 542397044#3 542397044#4 40972481#1 338566775#0 338566775#1 338566775#2 338566775#3 338566775#4 333015831#0 333015831#1 400017954 338426546 400017963#0 400017963#1 306730606#0 306730606#1 306730606#2 306730606#3 306730606#4 306730606#5 306730606#6 306730606#7 333370737#0 333370737#1 549772917 42453883#8 42453883#9 42453883#1 42453883#2 42453883#3 42453883#4 48853354#0 48853354#1 42201274 48853357#1 -400014566 -42201282#1 -42201282#0 42190860 42201279#0 42201279#1 42143918#10 42143918#11 42143918#12 42143918#13 42143918#14 42195044#6 402762620 402762621 42201277#1"/>
    </vehicle>
    <vehicle id="52" depart="65.00">
        <route edges="269103111#0 269103111#1 269103111#2-AddedOnRampEdge 269103111#2 269103111#3 269103111#4 269103111#5 40972460#2 40972460#3 40972460#4 40972462#0 40972462#1 552619454 48859314#0 48859314#1 48859314#2 48859314#3 45429539#0 45429539#1 45429539#2 45429539#3 45429539#4 45429539#5 45429539#6"/>
    </vehicle>
    <vehicle id="53" depart="66.25">
        <route edges="-45429548#1 -45429548#0 45429547#0 45429547#1 45429547#2 42201275#0 42201275#1 42453883#6 42453883#7 42453883#8 42453883#9 303119549 400262213#0 400262213#1 -334968133#1 -334968133#0 -336149056 -336149058 -47861234#1 -47861234#0 45427992#0 45427992#1 249653687 -269103122#4 -269103122#3 -269103122#2 264452213#10 264452213#11 264452213#12 579372765 406873916"/>
    </vehicle>
    <vehicle id="54" depart="67.50">
        <route edges="408713356 40972460#8 40972460#1 40972460#2 406209023 42136870 400017957 400017955 42136869#0 334948975#0 334948975#1 334948975#2 334948975#3 334948975#4 334948975#5 334948975#6 334948975#7 336149056 542398110 334968133#1 303119548 42453883#2 42453883#3 42453883#4 48853354#0 48853354#1 42201274 400014567 334968591#0 334968591#1 334968591#2 334968591#3 893257053 60204530#0"/>
    </vehicle>
    <vehicle id="55" depart="68.75">
        <route edges="542406425#0 542406425#1 542406425#2 542406429 542406427#0 542406427#1 542406427#2 542406426#0 542406426#1 542406426#2 552506217#0 552506217#1 552506217#2 48859291#0 48859291#1 -269103122#0 549778901#0 269102410#0 269102410#1 269102410#2 269103125#4 269103125#5"/>
    </vehicle>
    <vehicle id="56" depart="70.00">
        <route edges="42143234#2 250033168#0 48859291#1 48859291#2 48859291#3 48859311 48859295#1 48859295#2 42141924#0 42141924#1 334948975#2 334948975#3 334948975#4 334948975#5 334948975#6 334948975#7 336149056 542398110 334968133#1 303119548 42453883#2 42453883#3 42453883#4 48853354#0 48853354#1 42201274 48853357#1 -400014566 -42201282#1 -42201282#0 42190860 42492699#0 42492699#1 242087298#0 242087298#1"/>
    </vehicle>
    <vehicle id="57" depart="71.25">
        <route edges="549778901#3 549778901#4 549778901#5 -42143233#1 269103111#1 269103111#2-AddedOnRampEdge 269103111#2 269103111#3 269103111#4 269103111#5 40972460#2 40972460#3 40972460#4 40972462#0 40972462#1 552619454 48859314#0 48859314#1 48859314#2 48859314#3 48859314#4 48859314#5 48859314#6 48859314#7 48859314#8 408713354 334948974#9 542402347#0 542402347#1 542402347#2 542402347#3 542402347#4"/>
    </vehicle>
    <vehicle id="58" depart="72.50">
        <route edges="306725311#1 -306725311#1 -306725311#0 48859294 48859291#0 48859291#1 -269103122#0 549778901#0 269102410#0 269102410#1 269102410#2 269102410#3 269102410#4 269102410#5 269102410#6 269103111#4 269103111#5 40972460#2 40972460#3 40972460#4 40972462#0 40972462#1 552619454 48859314#0 48859314#1 48859314#2 48859314#3 45429539#0 45429539#1 45429539#2 45429539#3 45429539#4"/>
    </vehicle>
    <vehicle id="59" depart="73.75">
        <route edges="45393772#1 45393772#2 45393772#3 400006774#2 400006774#3 542393801 553331426 250130982#0 250130982#1 408713356 40972460#8 40972460#1 40972460#2 406209023 42136870 400017957 400017955 42136869#0 334948975#0 334948975#1 334948975#2 334948975#3 334948975#4 334948975#5 334948975#6 334948975#7 336149056 542398110 334968133#1 303119548 42453883#2 42453883#3 42453883#4 48853354#0 48853354#1 42201274 400014567 334968591#0 334968591#1 334968591#2 334968591#3 893257053 60204530#0 60204530#1 60204530#2 50123510 60204533 50123511 50123512 48100787 604749592 42454303#0 42454303#1 992235860 -992235860 -42454303#1 -42454303#0 -604749592 -48100787 -50123512 -50123511 -60204533 -50123510 -60204530#2 -60204530#1"/>
    </vehicle>
    <vehicle id="60" depart="75.00">
        <route edges="48853354#1 42201274 48853357#1 -400014566 -42201282#1 -42201282#0 42190860 42492699#0 42492699#1 42492699#2 42492699#3 42492699#4 42201277#4"/>
    </vehicle>
    <vehicle id="61" depart="76.25">
        <route edges="48859304#0 48859304#1 -48859304#1 -48859304#0 542393635#0 542393635#1 542393801 553331426 250130982#0 250130982#1 408713356 40972460#8 40972460#1 40972460#2 406209023 42136870 400017957 400017955 42136869#0 334948975#0 334948975#1 334948975#2 334948975#3 334948975#4 334948975#5 334948975#6 334948975#7 336149056 542398110 334968133#1 303119548 42453883#2 42453883#3 42453883#4 48853354#0 48853354#1 42201274 48853357#1 -400014566 -42201282#1 -42201282#0 42190860 42492699#0 42492699#1 42492699#2 42492699#3 42195044#4 42201276#2 42201276#3"/>
    </vehicle>
    <vehicle id="62" depart="77.50">
        <route edges="-1006284720#0 48547986#2 48547986#3 404425499#0 404425499#1 404425499#2 249653688 47861234#0 47861234#1 336149058 336149056 542398110 334968133#1 303119548 42453883#2 42453883#3 42453883#4 48853354#0 48853354#1 42201274 400014567 334968591#0 334968591#1 334968591#2 334968591#3"/>
    </vehicle>
    <vehicle id="63" depart="78.75">
        <route edges="-250051647#2 -250051647#1 -250051647#0 -48547994#1 -48547994#0 -269103122#3 404425499#0 404425499#1 404425499#2 249653688 47861234#0 47861234#1 336149058 336149056 542398110 334968133#1 303119548 42453883#2 42453883#3 42453883#4 48853354#0 48853354#1 42201274 48853357#1 -400014566 -42201282#1 -42201282#0 552643689#0 552643689#1"/>
    </vehicle>
    <vehicle id="64" depart="80.00">
        <route edges="542406426#0 542406426#1 542406426#2 552506217#0 552506217#1 552506217#2 893228189 42454301#0 42454301#1 42454301#2 42454301#3 42454301#4 542407411 542407410#0 542407410#1 269103109 45424962#7 895065309 269103111#0 -42143233#0 400006773#0 400006773#1 400006773#2 248268266#2 248268266#3 248268266#4 248268266#5 -400017961 -45393762#4 -45393762#3 -45393762#2 -45393762#1 -47861224#1 -47861224#0 48859299 523917171#0"/>
    </vehicle>
    <vehicle id="65" depart="81.25">
        <route edges="306730610 893216335#0 893216335#1 893216335#2 549772919#0 549772919#1 549772919#2 549772919#3 400017962 252225176#0 252225176#1 552619450 552619451#0 552619451#1 552619451#2 40972460#6 40972460#7 40972460#8 40972463#0 40972463#1 40972463#2 40972463#3 40972463#4 40972463#5 40972463#6 40972463#7 45424962#1 45424962#2 45424962#3 45424962#4 45424962#5 45424964 542407413 542407412 269103108#0 -402940390"/>
    </vehicle>
    <vehicle id="66" depart="82.50">
        <route edges="542406425#2 542406429 48547986#0 48547986#1 48547986#2 48547986#3 404425499#0 404425499#1 404425499#2 249653688 47861234#0 47861234#1 336149058 336149056 542398110 334968133#1 303119548 42453883#2 42453883#3 42453883#4 48853354#0 48853354#1 42201274 48853357#1 -400014566 -42201282#1 -42201282#0 42190860 42201279#0 42201279#1 42143918#10 42143918#11 42143918#12 42143918#13 42143918#14 42195044#6 42195044#7 42141326#2 42141326#3 554582108#3 554582108#4 554582108#5 554582108#6"/>
    </vehicle>
    <vehicle id="68" depart="85.00">
        <route edges="-402178665 -400015744#0 402179134 46309331#0 46309331#1 42453883#4 48853354#0"/>
    </vehicle>
    <vehicle id="69" depart="86.25">
        <route edges="48859291#0 48859291#1 -269103122#0 549778901#0 549778901#1 549778901#2 549778901#3 549778901#4 549778901#5 -42143233#1 -42143233#0 400006773#0 400006773#1 400006773#2 248268266#2 248268266#3 45393772#1 45393772#2 45393772#3 45393772#4 45393772#5 -48859304#1 -48859304#0"/>
    </vehicle>
    <vehicle id="70" depart="87.50">
        <route edges="42136872#2 42136872#3 42136872#4 893216335#0 893216335#1 893216335#2 549772919#0 549772919#1 549772919#2 549772919#3 400017962 252225176#0 333015831#1 400017954 338426546 400017963#0 400017963#1 306730606#0 306730606#1 306730606#2 306730606#3 306730606#4 306730606#5 306730606#6 306730606#7 333370737#0 333370737#1 549772917 42453883#8 42453883#9 42453883#1 42453883#2 42453883#3 42453883#4 48853354#0 48853354#1 42201274 400014567 334968591#0 334968591#1 42201281#0"/>
    </vehicle>
    <vehicle id="71" depart="88.75">